/*---------------------------------------------------------------------------*\
| =========                 |                                                 |
| \\      /  F ield         | OpenFOAM: The Open Source CFD Toolbox           |
|  \\    /   O peration     | Version:  2.4.0                                 |
|   \\  /    A nd           | Web:      www.OpenFOAM.org                      |
|    \\/     M anipulation  |                                                 |
\*---------------------------------------------------------------------------*/
Build  : 2.4.0-f0842aea0e77
Exec   : icoFoam
Date   : Sep 19 2015
Time   : 12:23:17
Host   : "ubuntu"
PID    : 15827
Case   : /home/johnathoncobabe/OpenFOAM/johnathoncobabe-2.4.0/run/tutorials/incompressible/icoFoam/cavityFine
nProcs : 1
sigFpe : Enabling floating point exception trapping (FOAM_SIGFPE).
fileModificationChecking : Monitoring run-time modified files using timeStampMaster
allowSystemOperations : Allowing user-supplied system call operations

// * * * * * * * * * * * * * * * * * * * * * * * * * * * * * * * * * * * * * //
Create time

Create mesh for time = 0

Reading transportProperties

Reading field p

Reading field U

Reading/calculating face flux field phi


Starting time loop

Time = 0.0025

Courant Number mean: 0 max: 0
smoothSolver:  Solving for Ux, Initial residual = 1, Final residual = 9.41597e-06, No Iterations 35
smoothSolver:  Solving for Uy, Initial residual = 0, Final residual = 0, No Iterations 0
DICPCG:  Solving for p, Initial residual = 1, Final residual = 8.523e-07, No Iterations 70
time step continuity errors : sum local = 2.07066e-09, global = -3.06305e-19, cumulative = -3.06305e-19
DICPCG:  Solving for p, Initial residual = 0.597283, Final residual = 6.84515e-07, No Iterations 69
time step continuity errors : sum local = 2.59725e-09, global = -2.08439e-19, cumulative = -5.14744e-19
ExecutionTime = 0.02 s  ClockTime = 0 s

Time = 0.005

Courant Number mean: 0.080661 max: 0.702615
smoothSolver:  Solving for Ux, Initial residual = 0.138879, Final residual = 9.48405e-06, No Iterations 35
smoothSolver:  Solving for Uy, Initial residual = 0.30258, Final residual = 8.9318e-06, No Iterations 38
DICPCG:  Solving for p, Initial residual = 0.519601, Final residual = 8.44129e-07, No Iterations 67
time step continuity errors : sum local = 2.77723e-09, global = 7.70467e-20, cumulative = -4.37697e-19
DICPCG:  Solving for p, Initial residual = 0.427036, Final residual = 7.81072e-07, No Iterations 67
time step continuity errors : sum local = 2.77462e-09, global = 5.02538e-20, cumulative = -3.87444e-19
ExecutionTime = 0.03 s  ClockTime = 0 s

Time = 0.0075

Courant Number mean: 0.120853 max: 0.853303
smoothSolver:  Solving for Ux, Initial residual = 0.0420655, Final residual = 8.09679e-06, No Iterations 30
smoothSolver:  Solving for Uy, Initial residual = 0.0832045, Final residual = 8.161e-06, No Iterations 34
DICPCG:  Solving for p, Initial residual = 0.282014, Final residual = 7.24689e-07, No Iterations 66
time step continuity errors : sum local = 1.72475e-09, global = 4.10643e-20, cumulative = -3.46379e-19
DICPCG:  Solving for p, Initial residual = 0.240302, Final residual = 5.85659e-07, No Iterations 66
time step continuity errors : sum local = 1.40249e-09, global = -1.31214e-19, cumulative = -4.77593e-19
ExecutionTime = 0.04 s  ClockTime = 0 s

Time = 0.01

Courant Number mean: 0.141514 max: 0.877065
smoothSolver:  Solving for Ux, Initial residual = 0.0238463, Final residual = 9.48616e-06, No Iterations 28
smoothSolver:  Solving for Uy, Initial residual = 0.0572213, Final residual = 8.61167e-06, No Iterations 33
DICPCG:  Solving for p, Initial residual = 0.0999307, Final residual = 9.38817e-07, No Iterations 64
time step continuity errors : sum local = 2.10285e-09, global = 2.48725e-19, cumulative = -2.28868e-19
DICPCG:  Solving for p, Initial residual = 0.0832958, Final residual = 7.2545e-07, No Iterations 64
time step continuity errors : sum local = 1.64156e-09, global = 1.3395e-19, cumulative = -9.49177e-20
ExecutionTime = 0.05 s  ClockTime = 0 s

Time = 0.0125

Courant Number mean: 0.15642 max: 0.891824
smoothSolver:  Solving for Ux, Initial residual = 0.0165958, Final residual = 9.51937e-06, No Iterations 27
smoothSolver:  Solving for Uy, Initial residual = 0.0375655, Final residual = 7.88171e-06, No Iterations 32
DICPCG:  Solving for p, Initial residual = 0.0591981, Final residual = 8.65887e-07, No Iterations 63
time step continuity errors : sum local = 1.91484e-09, global = 8.29352e-20, cumulative = -1.19825e-20
DICPCG:  Solving for p, Initial residual = 0.0513226, Final residual = 6.64063e-07, No Iterations 63
time step continuity errors : sum local = 1.47454e-09, global = 2.404e-22, cumulative = -1.17421e-20
ExecutionTime = 0.06 s  ClockTime = 0 s

Time = 0.015

Courant Number mean: 0.167626 max: 0.900172
smoothSolver:  Solving for Ux, Initial residual = 0.0121623, Final residual = 9.91291e-06, No Iterations 26
smoothSolver:  Solving for Uy, Initial residual = 0.028597, Final residual = 8.04839e-06, No Iterations 31
DICPCG:  Solving for p, Initial residual = 0.0348141, Final residual = 6.43402e-07, No Iterations 62
time step continuity errors : sum local = 1.41682e-09, global = 3.37893e-19, cumulative = 3.26151e-19
DICPCG:  Solving for p, Initial residual = 0.0307797, Final residual = 5.30852e-07, No Iterations 62
time step continuity errors : sum local = 1.17079e-09, global = 6.9416e-20, cumulative = 3.95567e-19
ExecutionTime = 0.08 s  ClockTime = 0 s

Time = 0.0175

Courant Number mean: 0.176384 max: 0.905929
smoothSolver:  Solving for Ux, Initial residual = 0.00949574, Final residual = 8.21482e-06, No Iterations 26
smoothSolver:  Solving for Uy, Initial residual = 0.0223741, Final residual = 8.34904e-06, No Iterations 30
DICPCG:  Solving for p, Initial residual = 0.0282392, Final residual = 4.72062e-07, No Iterations 62
time step continuity errors : sum local = 1.03772e-09, global = 3.45345e-19, cumulative = 7.40912e-19
DICPCG:  Solving for p, Initial residual = 0.0251668, Final residual = 8.13988e-07, No Iterations 61
time step continuity errors : sum local = 1.7886e-09, global = 4.01601e-19, cumulative = 1.14251e-18
ExecutionTime = 0.08 s  ClockTime = 0 s

Time = 0.02

Courant Number mean: 0.183496 max: 0.910059
smoothSolver:  Solving for Ux, Initial residual = 0.00759855, Final residual = 8.97676e-06, No Iterations 25
smoothSolver:  Solving for Uy, Initial residual = 0.0180703, Final residual = 8.88664e-06, No Iterations 29
DICPCG:  Solving for p, Initial residual = 0.0223718, Final residual = 7.00474e-07, No Iterations 61
time step continuity errors : sum local = 1.53679e-09, global = 3.25351e-19, cumulative = 1.46786e-18
DICPCG:  Solving for p, Initial residual = 0.0199778, Final residual = 5.37516e-07, No Iterations 61
time step continuity errors : sum local = 1.17938e-09, global = 6.01058e-19, cumulative = 2.06892e-18
ExecutionTime = 0.1 s  ClockTime = 0 s

Time = 0.0225

Courant Number mean: 0.189376 max: 0.913156
smoothSolver:  Solving for Ux, Initial residual = 0.00621014, Final residual = 9.92647e-06, No Iterations 24
smoothSolver:  Solving for Uy, Initial residual = 0.0148683, Final residual = 9.59275e-06, No Iterations 28
DICPCG:  Solving for p, Initial residual = 0.018476, Final residual = 5.86065e-07, No Iterations 61
time step continuity errors : sum local = 1.28737e-09, global = 5.02357e-20, cumulative = 2.11916e-18
DICPCG:  Solving for p, Initial residual = 0.0165322, Final residual = 9.22506e-07, No Iterations 60
time step continuity errors : sum local = 2.02514e-09, global = -3.44438e-19, cumulative = 1.77472e-18
ExecutionTime = 0.1 s  ClockTime = 0 s

Time = 0.025

Courant Number mean: 0.194252 max: 0.915538
smoothSolver:  Solving for Ux, Initial residual = 0.00515915, Final residual = 8.48771e-06, No Iterations 24
smoothSolver:  Solving for Uy, Initial residual = 0.0124059, Final residual = 8.05668e-06, No Iterations 28
DICPCG:  Solving for p, Initial residual = 0.0154124, Final residual = 8.43106e-07, No Iterations 60
time step continuity errors : sum local = 1.85351e-09, global = 2.8181e-20, cumulative = 1.8029e-18
DICPCG:  Solving for p, Initial residual = 0.0138061, Final residual = 7.07844e-07, No Iterations 60
time step continuity errors : sum local = 1.55453e-09, global = 2.6209e-19, cumulative = 2.06499e-18
ExecutionTime = 0.11 s  ClockTime = 0 s

Time = 0.0275

Courant Number mean: 0.198345 max: 0.917411
smoothSolver:  Solving for Ux, Initial residual = 0.0043275, Final residual = 9.50354e-06, No Iterations 23
smoothSolver:  Solving for Uy, Initial residual = 0.0104627, Final residual = 8.8812e-06, No Iterations 27
DICPCG:  Solving for p, Initial residual = 0.0129627, Final residual = 6.42216e-07, No Iterations 60
time step continuity errors : sum local = 1.41266e-09, global = 5.06472e-19, cumulative = 2.57146e-18
DICPCG:  Solving for p, Initial residual = 0.0116172, Final residual = 8.63052e-07, No Iterations 59
time step continuity errors : sum local = 1.89914e-09, global = 7.22749e-21, cumulative = 2.57869e-18
ExecutionTime = 0.12 s  ClockTime = 0 s

Time = 0.03

Courant Number mean: 0.201806 max: 0.918906
smoothSolver:  Solving for Ux, Initial residual = 0.00366808, Final residual = 8.20965e-06, No Iterations 23
smoothSolver:  Solving for Uy, Initial residual = 0.00889735, Final residual = 9.86006e-06, No Iterations 26
DICPCG:  Solving for p, Initial residual = 0.0110001, Final residual = 7.69735e-07, No Iterations 59
time step continuity errors : sum local = 1.69621e-09, global = 2.02817e-19, cumulative = 2.78151e-18
DICPCG:  Solving for p, Initial residual = 0.00985858, Final residual = 9.07758e-07, No Iterations 58
time step continuity errors : sum local = 2.00017e-09, global = -2.55728e-20, cumulative = 2.75593e-18
ExecutionTime = 0.13 s  ClockTime = 0 s

Time = 0.0325

Courant Number mean: 0.204774 max: 0.920113
smoothSolver:  Solving for Ux, Initial residual = 0.00312603, Final residual = 9.2614e-06, No Iterations 22
smoothSolver:  Solving for Uy, Initial residual = 0.0076173, Final residual = 8.46712e-06, No Iterations 26
DICPCG:  Solving for p, Initial residual = 0.00937123, Final residual = 8.52636e-07, No Iterations 56
time step continuity errors : sum local = 1.87652e-09, global = 4.61122e-19, cumulative = 3.21706e-18
DICPCG:  Solving for p, Initial residual = 0.00840093, Final residual = 9.63693e-07, No Iterations 55
time step continuity errors : sum local = 2.11876e-09, global = 3.73472e-19, cumulative = 3.59053e-18
ExecutionTime = 0.14 s  ClockTime = 0 s

Time = 0.035

Courant Number mean: 0.207333 max: 0.921099
smoothSolver:  Solving for Ux, Initial residual = 0.00268405, Final residual = 8.05227e-06, No Iterations 22
smoothSolver:  Solving for Uy, Initial residual = 0.00655615, Final residual = 9.49841e-06, No Iterations 25
DICPCG:  Solving for p, Initial residual = 0.00803215, Final residual = 7.72294e-07, No Iterations 55
time step continuity errors : sum local = 1.7017e-09, global = 5.83007e-20, cumulative = 3.64883e-18
DICPCG:  Solving for p, Initial residual = 0.00720343, Final residual = 6.19711e-07, No Iterations 55
time step continuity errors : sum local = 1.36507e-09, global = 2.40089e-19, cumulative = 3.88892e-18
ExecutionTime = 0.15 s  ClockTime = 0 s

Time = 0.0375

Courant Number mean: 0.209546 max: 0.921911
smoothSolver:  Solving for Ux, Initial residual = 0.00231267, Final residual = 9.13054e-06, No Iterations 21
smoothSolver:  Solving for Uy, Initial residual = 0.00566832, Final residual = 8.22849e-06, No Iterations 25
DICPCG:  Solving for p, Initial residual = 0.00690251, Final residual = 6.75457e-07, No Iterations 55
time step continuity errors : sum local = 1.48843e-09, global = -1.10946e-19, cumulative = 3.77797e-18
DICPCG:  Solving for p, Initial residual = 0.0061892, Final residual = 5.37309e-07, No Iterations 55
time step continuity errors : sum local = 1.18378e-09, global = 4.52158e-20, cumulative = 3.82319e-18
ExecutionTime = 0.16 s  ClockTime = 0 s

Time = 0.04

Courant Number mean: 0.211458 max: 0.922584
smoothSolver:  Solving for Ux, Initial residual = 0.00200137, Final residual = 7.9754e-06, No Iterations 21
smoothSolver:  Solving for Uy, Initial residual = 0.00491811, Final residual = 9.29569e-06, No Iterations 24
DICPCG:  Solving for p, Initial residual = 0.00595612, Final residual = 7.08417e-07, No Iterations 55
time step continuity errors : sum local = 1.56062e-09, global = -4.428e-20, cumulative = 3.77891e-18
DICPCG:  Solving for p, Initial residual = 0.00534103, Final residual = 5.93003e-07, No Iterations 55
time step continuity errors : sum local = 1.3062e-09, global = 5.51833e-20, cumulative = 3.83409e-18
ExecutionTime = 0.17 s  ClockTime = 0 s

Time = 0.0425

Courant Number mean: 0.213118 max: 0.923145
smoothSolver:  Solving for Ux, Initial residual = 0.00173829, Final residual = 9.07382e-06, No Iterations 20
smoothSolver:  Solving for Uy, Initial residual = 0.00428071, Final residual = 8.10152e-06, No Iterations 24
DICPCG:  Solving for p, Initial residual = 0.00514921, Final residual = 8.28579e-07, No Iterations 55
time step continuity errors : sum local = 1.8293e-09, global = 9.48207e-20, cumulative = 3.92891e-18
DICPCG:  Solving for p, Initial residual = 0.00461789, Final residual = 7.35559e-07, No Iterations 55
time step continuity errors : sum local = 1.62367e-09, global = -1.61326e-19, cumulative = 3.76759e-18
ExecutionTime = 0.18 s  ClockTime = 0 s

Time = 0.045

Courant Number mean: 0.214559 max: 0.923617
smoothSolver:  Solving for Ux, Initial residual = 0.00151341, Final residual = 7.95316e-06, No Iterations 20
smoothSolver:  Solving for Uy, Initial residual = 0.00373488, Final residual = 9.19671e-06, No Iterations 23
DICPCG:  Solving for p, Initial residual = 0.00446724, Final residual = 8.93643e-07, No Iterations 55
time step continuity errors : sum local = 1.97498e-09, global = -1.00068e-19, cumulative = 3.66752e-18
DICPCG:  Solving for p, Initial residual = 0.00400634, Final residual = 7.9829e-07, No Iterations 55
time step continuity errors : sum local = 1.76318e-09, global = -2.91297e-19, cumulative = 3.37622e-18
ExecutionTime = 0.18 s  ClockTime = 0 s

Time = 0.0475

Courant Number mean: 0.215814 max: 0.924013
smoothSolver:  Solving for Ux, Initial residual = 0.00132044, Final residual = 9.07196e-06, No Iterations 19
smoothSolver:  Solving for Uy, Initial residual = 0.00326612, Final residual = 8.04944e-06, No Iterations 23
DICPCG:  Solving for p, Initial residual = 0.00387556, Final residual = 9.36732e-07, No Iterations 55
time step continuity errors : sum local = 2.07124e-09, global = -3.09045e-19, cumulative = 3.06718e-18
DICPCG:  Solving for p, Initial residual = 0.00347563, Final residual = 8.38259e-07, No Iterations 55
time step continuity errors : sum local = 1.8521e-09, global = -5.04585e-19, cumulative = 2.56259e-18
ExecutionTime = 0.19 s  ClockTime = 0 s

Time = 0.05

Courant Number mean: 0.216909 max: 0.92435
smoothSolver:  Solving for Ux, Initial residual = 0.00115521, Final residual = 7.97167e-06, No Iterations 19
smoothSolver:  Solving for Uy, Initial residual = 0.00286084, Final residual = 9.16874e-06, No Iterations 22
DICPCG:  Solving for p, Initial residual = 0.00337602, Final residual = 8.90355e-07, No Iterations 55
time step continuity errors : sum local = 1.96868e-09, global = 1.77487e-19, cumulative = 2.74008e-18
DICPCG:  Solving for p, Initial residual = 0.00302719, Final residual = 8.03778e-07, No Iterations 55
time step continuity errors : sum local = 1.77607e-09, global = 2.44866e-19, cumulative = 2.98494e-18
ExecutionTime = 0.2 s  ClockTime = 0 s

Time = 0.0525

Courant Number mean: 0.217866 max: 0.924635
smoothSolver:  Solving for Ux, Initial residual = 0.00101204, Final residual = 9.11113e-06, No Iterations 18
smoothSolver:  Solving for Uy, Initial residual = 0.00251021, Final residual = 8.04971e-06, No Iterations 22
DICPCG:  Solving for p, Initial residual = 0.00293943, Final residual = 8.4546e-07, No Iterations 55
time step continuity errors : sum local = 1.86984e-09, global = 7.80584e-19, cumulative = 3.76553e-18
DICPCG:  Solving for p, Initial residual = 0.00263517, Final residual = 9.42442e-07, No Iterations 54
time step continuity errors : sum local = 2.08467e-09, global = -1.4822e-20, cumulative = 3.75071e-18
ExecutionTime = 0.21 s  ClockTime = 0 s

Time = 0.055

Courant Number mean: 0.218703 max: 0.924878
smoothSolver:  Solving for Ux, Initial residual = 0.000888028, Final residual = 8.02243e-06, No Iterations 18
smoothSolver:  Solving for Uy, Initial residual = 0.00220491, Final residual = 9.19142e-06, No Iterations 21
DICPCG:  Solving for p, Initial residual = 0.00256825, Final residual = 9.96177e-07, No Iterations 54
time step continuity errors : sum local = 2.20433e-09, global = 2.1014e-19, cumulative = 3.96085e-18
DICPCG:  Solving for p, Initial residual = 0.00230199, Final residual = 8.46989e-07, No Iterations 54
time step continuity errors : sum local = 1.87407e-09, global = -4.8541e-19, cumulative = 3.47544e-18
ExecutionTime = 0.22 s  ClockTime = 0 s

Time = 0.0575

Courant Number mean: 0.219434 max: 0.925086
smoothSolver:  Solving for Ux, Initial residual = 0.000779961, Final residual = 9.181e-06, No Iterations 17
smoothSolver:  Solving for Uy, Initial residual = 0.00193945, Final residual = 8.08808e-06, No Iterations 21
DICPCG:  Solving for p, Initial residual = 0.00224052, Final residual = 8.98272e-07, No Iterations 54
time step continuity errors : sum local = 1.98888e-09, global = 1.67783e-19, cumulative = 3.64322e-18
DICPCG:  Solving for p, Initial residual = 0.00200783, Final residual = 7.68589e-07, No Iterations 54
time step continuity errors : sum local = 1.7018e-09, global = -6.08391e-20, cumulative = 3.58238e-18
ExecutionTime = 0.23 s  ClockTime = 0 s

Time = 0.06

Courant Number mean: 0.220076 max: 0.925265
smoothSolver:  Solving for Ux, Initial residual = 0.000686261, Final residual = 8.09638e-06, No Iterations 17
smoothSolver:  Solving for Uy, Initial residual = 0.00170708, Final residual = 9.25157e-06, No Iterations 20
DICPCG:  Solving for p, Initial residual = 0.00196181, Final residual = 7.91464e-07, No Iterations 54
time step continuity errors : sum local = 1.75278e-09, global = -2.18536e-19, cumulative = 3.36384e-18
DICPCG:  Solving for p, Initial residual = 0.0017574, Final residual = 8.85759e-07, No Iterations 53
time step continuity errors : sum local = 1.96265e-09, global = 1.02917e-19, cumulative = 3.46676e-18
ExecutionTime = 0.24 s  ClockTime = 0 s

Time = 0.0625

Courant Number mean: 0.220639 max: 0.925418
smoothSolver:  Solving for Ux, Initial residual = 0.000604238, Final residual = 9.27684e-06, No Iterations 16
smoothSolver:  Solving for Uy, Initial residual = 0.00150435, Final residual = 8.15537e-06, No Iterations 20
DICPCG:  Solving for p, Initial residual = 0.00171533, Final residual = 8.89744e-07, No Iterations 53
time step continuity errors : sum local = 1.97268e-09, global = 1.33124e-19, cumulative = 3.59989e-18
DICPCG:  Solving for p, Initial residual = 0.00153647, Final residual = 7.76087e-07, No Iterations 53
time step continuity errors : sum local = 1.72105e-09, global = -6.10289e-19, cumulative = 2.9896e-18
ExecutionTime = 0.24 s  ClockTime = 0 s

Time = 0.065

Courant Number mean: 0.221133 max: 0.925551
smoothSolver:  Solving for Ux, Initial residual = 0.000532753, Final residual = 8.19471e-06, No Iterations 16
smoothSolver:  Solving for Uy, Initial residual = 0.00132618, Final residual = 9.34077e-06, No Iterations 19
DICPCG:  Solving for p, Initial residual = 0.00150414, Final residual = 7.72801e-07, No Iterations 53
time step continuity errors : sum local = 1.71376e-09, global = -1.22004e-19, cumulative = 2.86759e-18
DICPCG:  Solving for p, Initial residual = 0.00134684, Final residual = 6.74219e-07, No Iterations 53
time step continuity errors : sum local = 1.49545e-09, global = -2.08439e-19, cumulative = 2.65915e-18
ExecutionTime = 0.25 s  ClockTime = 0 s

Time = 0.0675

Courant Number mean: 0.221568 max: 0.925666
smoothSolver:  Solving for Ux, Initial residual = 0.000469765, Final residual = 9.39969e-06, No Iterations 15
smoothSolver:  Solving for Uy, Initial residual = 0.00117042, Final residual = 8.24575e-06, No Iterations 19
DICPCG:  Solving for p, Initial residual = 0.00131718, Final residual = 6.76486e-07, No Iterations 53
time step continuity errors : sum local = 1.50134e-09, global = 2.05394e-19, cumulative = 2.86455e-18
DICPCG:  Solving for p, Initial residual = 0.0011793, Final residual = 5.90992e-07, No Iterations 53
time step continuity errors : sum local = 1.31195e-09, global = 1.24873e-19, cumulative = 2.98942e-18
ExecutionTime = 0.26 s  ClockTime = 0 s

Time = 0.07

Courant Number mean: 0.22195 max: 0.925765
smoothSolver:  Solving for Ux, Initial residual = 0.000414838, Final residual = 8.31347e-06, No Iterations 15
smoothSolver:  Solving for Uy, Initial residual = 0.00103306, Final residual = 9.4537e-06, No Iterations 18
DICPCG:  Solving for p, Initial residual = 0.00115597, Final residual = 5.87932e-07, No Iterations 53
time step continuity errors : sum local = 1.30495e-09, global = 2.14017e-19, cumulative = 3.20344e-18
DICPCG:  Solving for p, Initial residual = 0.0010345, Final residual = 9.79082e-07, No Iterations 52
time step continuity errors : sum local = 2.16988e-09, global = -1.74747e-19, cumulative = 3.02869e-18
ExecutionTime = 0.27 s  ClockTime = 0 s

Time = 0.0725

Courant Number mean: 0.222286 max: 0.925851
smoothSolver:  Solving for Ux, Initial residual = 0.0003663, Final residual = 9.54222e-06, No Iterations 14
smoothSolver:  Solving for Uy, Initial residual = 0.000912873, Final residual = 8.35574e-06, No Iterations 18
DICPCG:  Solving for p, Initial residual = 0.00101332, Final residual = 5.10109e-07, No Iterations 53
time step continuity errors : sum local = 1.13313e-09, global = 4.22198e-19, cumulative = 3.45089e-18
DICPCG:  Solving for p, Initial residual = 0.000907032, Final residual = 8.5323e-07, No Iterations 52
time step continuity errors : sum local = 1.8921e-09, global = 2.1212e-19, cumulative = 3.66301e-18
ExecutionTime = 0.28 s  ClockTime = 1 s

Time = 0.075

Courant Number mean: 0.222582 max: 0.925926
smoothSolver:  Solving for Ux, Initial residual = 0.000323991, Final residual = 8.44979e-06, No Iterations 14
smoothSolver:  Solving for Uy, Initial residual = 0.000806563, Final residual = 9.5874e-06, No Iterations 17
DICPCG:  Solving for p, Initial residual = 0.000889645, Final residual = 9.01064e-07, No Iterations 52
time step continuity errors : sum local = 1.99722e-09, global = -8.5639e-20, cumulative = 3.57737e-18
DICPCG:  Solving for p, Initial residual = 0.000795541, Final residual = 7.46852e-07, No Iterations 52
time step continuity errors : sum local = 1.65631e-09, global = -8.03751e-19, cumulative = 2.77362e-18
ExecutionTime = 0.28 s  ClockTime = 1 s

Time = 0.0775

Courant Number mean: 0.222842 max: 0.92599
smoothSolver:  Solving for Ux, Initial residual = 0.000286469, Final residual = 9.70571e-06, No Iterations 13
smoothSolver:  Solving for Uy, Initial residual = 0.000713537, Final residual = 8.48371e-06, No Iterations 17
DICPCG:  Solving for p, Initial residual = 0.000781359, Final residual = 7.83068e-07, No Iterations 52
time step continuity errors : sum local = 1.73656e-09, global = 6.8656e-21, cumulative = 2.78049e-18
DICPCG:  Solving for p, Initial residual = 0.00069936, Final residual = 6.481e-07, No Iterations 52
time step continuity errors : sum local = 1.43819e-09, global = 1.36831e-19, cumulative = 2.91732e-18
ExecutionTime = 0.29 s  ClockTime = 1 s

Time = 0.08

Courant Number mean: 0.223072 max: 0.926047
smoothSolver:  Solving for Ux, Initial residual = 0.000253778, Final residual = 8.60646e-06, No Iterations 13
smoothSolver:  Solving for Uy, Initial residual = 0.000631017, Final residual = 9.74071e-06, No Iterations 16
DICPCG:  Solving for p, Initial residual = 0.000685427, Final residual = 6.81616e-07, No Iterations 52
time step continuity errors : sum local = 1.51167e-09, global = 3.06987e-20, cumulative = 2.94802e-18
DICPCG:  Solving for p, Initial residual = 0.000612715, Final residual = 5.63156e-07, No Iterations 52
time step continuity errors : sum local = 1.24971e-09, global = -1.76567e-19, cumulative = 2.77145e-18
ExecutionTime = 0.3 s  ClockTime = 1 s

Time = 0.0825

Courant Number mean: 0.223274 max: 0.926096
smoothSolver:  Solving for Ux, Initial residual = 0.000224638, Final residual = 9.89498e-06, No Iterations 12
smoothSolver:  Solving for Uy, Initial residual = 0.000558869, Final residual = 8.62946e-06, No Iterations 16
DICPCG:  Solving for p, Initial residual = 0.000604697, Final residual = 7.38563e-07, No Iterations 45
time step continuity errors : sum local = 1.63543e-09, global = -2.38383e-19, cumulative = 2.53307e-18
DICPCG:  Solving for p, Initial residual = 0.000541516, Final residual = 6.42275e-07, No Iterations 45
time step continuity errors : sum local = 1.42172e-09, global = 5.21848e-20, cumulative = 2.58525e-18
ExecutionTime = 0.31 s  ClockTime = 1 s

Time = 0.085

Courant Number mean: 0.223452 max: 0.926139
smoothSolver:  Solving for Ux, Initial residual = 0.0001993, Final residual = 8.78834e-06, No Iterations 12
smoothSolver:  Solving for Uy, Initial residual = 0.00049467, Final residual = 9.91383e-06, No Iterations 15
DICPCG:  Solving for p, Initial residual = 0.000528202, Final residual = 8.75873e-07, No Iterations 51
time step continuity errors : sum local = 1.94027e-09, global = 7.42498e-20, cumulative = 2.6595e-18
DICPCG:  Solving for p, Initial residual = 0.000471952, Final residual = 8.94581e-07, No Iterations 48
time step continuity errors : sum local = 1.97952e-09, global = 2.79458e-19, cumulative = 2.93896e-18
ExecutionTime = 0.32 s  ClockTime = 1 s

Time = 0.0875

Courant Number mean: 0.223609 max: 0.926176
smoothSolver:  Solving for Ux, Initial residual = 0.000176605, Final residual = 7.78765e-06, No Iterations 12
smoothSolver:  Solving for Uy, Initial residual = 0.000438659, Final residual = 8.79439e-06, No Iterations 15
DICPCG:  Solving for p, Initial residual = 0.000468008, Final residual = 7.02029e-07, No Iterations 45
time step continuity errors : sum local = 1.55549e-09, global = 9.78244e-20, cumulative = 3.03678e-18
DICPCG:  Solving for p, Initial residual = 0.000418244, Final residual = 9.44496e-07, No Iterations 44
time step continuity errors : sum local = 2.08763e-09, global = -9.0934e-19, cumulative = 2.12744e-18
ExecutionTime = 0.33 s  ClockTime = 1 s

Time = 0.09

Courant Number mean: 0.223748 max: 0.926209
smoothSolver:  Solving for Ux, Initial residual = 0.000156591, Final residual = 8.96877e-06, No Iterations 11
smoothSolver:  Solving for Uy, Initial residual = 0.000388811, Final residual = 7.79462e-06, No Iterations 15
DICPCG:  Solving for p, Initial residual = 0.000416301, Final residual = 7.54831e-07, No Iterations 30
time step continuity errors : sum local = 2.30744e-09, global = 2.73709e-19, cumulative = 2.40115e-18
DICPCG:  Solving for p, Initial residual = 0.000374241, Final residual = 8.11229e-07, No Iterations 30
time step continuity errors : sum local = 2.45484e-09, global = 2.07726e-20, cumulative = 2.42192e-18
ExecutionTime = 0.33 s  ClockTime = 1 s

Time = 0.0925

Courant Number mean: 0.223871 max: 0.926238
smoothSolver:  Solving for Ux, Initial residual = 0.0001392, Final residual = 7.9793e-06, No Iterations 11
smoothSolver:  Solving for Uy, Initial residual = 0.000344462, Final residual = 8.9615e-06, No Iterations 14
DICPCG:  Solving for p, Initial residual = 0.000362999, Final residual = 6.56993e-07, No Iterations 51
time step continuity errors : sum local = 1.45616e-09, global = 1.52005e-19, cumulative = 2.57393e-18
DICPCG:  Solving for p, Initial residual = 0.000324672, Final residual = 5.52391e-07, No Iterations 51
time step continuity errors : sum local = 1.22474e-09, global = 5.33712e-19, cumulative = 3.10764e-18
ExecutionTime = 0.34 s  ClockTime = 1 s

Time = 0.095

Courant Number mean: 0.223979 max: 0.926263
smoothSolver:  Solving for Ux, Initial residual = 0.000123451, Final residual = 9.18575e-06, No Iterations 10
smoothSolver:  Solving for Uy, Initial residual = 0.00030605, Final residual = 7.96466e-06, No Iterations 14
DICPCG:  Solving for p, Initial residual = 0.000330815, Final residual = 5.87816e-07, No Iterations 51
time step continuity errors : sum local = 1.30351e-09, global = -5.82583e-19, cumulative = 2.52506e-18
DICPCG:  Solving for p, Initial residual = 0.000299178, Final residual = 9.26608e-07, No Iterations 50
time step continuity errors : sum local = 2.05136e-09, global = -3.51304e-19, cumulative = 2.17375e-18
ExecutionTime = 0.35 s  ClockTime = 1 s

Time = 0.0975

Courant Number mean: 0.224074 max: 0.926285
smoothSolver:  Solving for Ux, Initial residual = 0.000109978, Final residual = 8.19141e-06, No Iterations 10
smoothSolver:  Solving for Uy, Initial residual = 0.00027141, Final residual = 9.16097e-06, No Iterations 13
DICPCG:  Solving for p, Initial residual = 0.000282628, Final residual = 8.78552e-07, No Iterations 30
time step continuity errors : sum local = 2.62621e-09, global = 2.1014e-19, cumulative = 2.38389e-18
DICPCG:  Solving for p, Initial residual = 0.000253961, Final residual = 9.84054e-07, No Iterations 27
time step continuity errors : sum local = 2.80385e-09, global = -6.64485e-20, cumulative = 2.31745e-18
ExecutionTime = 0.35 s  ClockTime = 1 s

Time = 0.1

Courant Number mean: 0.224159 max: 0.926304
smoothSolver:  Solving for Ux, Initial residual = 9.77262e-05, Final residual = 9.44485e-06, No Iterations 9
smoothSolver:  Solving for Uy, Initial residual = 0.000241413, Final residual = 8.15305e-06, No Iterations 13
DICPCG:  Solving for p, Initial residual = 0.0002688, Final residual = 7.98916e-07, No Iterations 50
time step continuity errors : sum local = 1.76923e-09, global = -1.23508e-19, cumulative = 2.19394e-18
DICPCG:  Solving for p, Initial residual = 0.000244771, Final residual = 9.66576e-07, No Iterations 49
time step continuity errors : sum local = 2.13728e-09, global = -9.76435e-20, cumulative = 2.09629e-18
ExecutionTime = 0.36 s  ClockTime = 1 s

Time = 0.1025

Courant Number mean: 0.224233 max: 0.926322
smoothSolver:  Solving for Ux, Initial residual = 8.72318e-05, Final residual = 8.44084e-06, No Iterations 9
smoothSolver:  Solving for Uy, Initial residual = 0.000214461, Final residual = 9.38857e-06, No Iterations 12
DICPCG:  Solving for p, Initial residual = 0.000224746, Final residual = 9.27643e-07, No Iterations 49
time step continuity errors : sum local = 2.0518e-09, global = -4.44765e-20, cumulative = 2.05182e-18
DICPCG:  Solving for p, Initial residual = 0.000203157, Final residual = 9.44318e-07, No Iterations 48
time step continuity errors : sum local = 2.08511e-09, global = -4.32197e-19, cumulative = 1.61962e-18
ExecutionTime = 0.37 s  ClockTime = 1 s

Time = 0.105

Courant Number mean: 0.224298 max: 0.926336
smoothSolver:  Solving for Ux, Initial residual = 7.7658e-05, Final residual = 9.7467e-06, No Iterations 8
smoothSolver:  Solving for Uy, Initial residual = 0.000191109, Final residual = 8.37281e-06, No Iterations 12
DICPCG:  Solving for p, Initial residual = 0.000225059, Final residual = 9.98678e-07, No Iterations 48
time step continuity errors : sum local = 2.20794e-09, global = -5.32513e-19, cumulative = 1.08711e-18
DICPCG:  Solving for p, Initial residual = 0.000207352, Final residual = 9.08535e-07, No Iterations 48
time step continuity errors : sum local = 2.00818e-09, global = 5.48684e-19, cumulative = 1.63579e-18
ExecutionTime = 0.38 s  ClockTime = 1 s

Time = 0.1075

Courant Number mean: 0.224356 max: 0.92635
smoothSolver:  Solving for Ux, Initial residual = 6.95616e-05, Final residual = 8.74478e-06, No Iterations 8
smoothSolver:  Solving for Uy, Initial residual = 0.00016999, Final residual = 9.64803e-06, No Iterations 11
DICPCG:  Solving for p, Initial residual = 0.000183755, Final residual = 8.10804e-07, No Iterations 48
time step continuity errors : sum local = 1.79159e-09, global = -9.87964e-21, cumulative = 1.62591e-18
DICPCG:  Solving for p, Initial residual = 0.000167651, Final residual = 9.43929e-07, No Iterations 47
time step continuity errors : sum local = 2.08896e-09, global = 6.05512e-19, cumulative = 2.23142e-18
ExecutionTime = 0.39 s  ClockTime = 1 s

Time = 0.11

Courant Number mean: 0.224407 max: 0.926361
smoothSolver:  Solving for Ux, Initial residual = 6.20512e-05, Final residual = 7.79651e-06, No Iterations 8
smoothSolver:  Solving for Uy, Initial residual = 0.000151902, Final residual = 8.6298e-06, No Iterations 11
DICPCG:  Solving for p, Initial residual = 0.000165916, Final residual = 7.32162e-07, No Iterations 48
time step continuity errors : sum local = 1.61802e-09, global = 6.02291e-20, cumulative = 2.29165e-18
DICPCG:  Solving for p, Initial residual = 0.000151447, Final residual = 8.50035e-07, No Iterations 47
time step continuity errors : sum local = 1.88169e-09, global = 1.87703e-19, cumulative = 2.47936e-18
ExecutionTime = 0.39 s  ClockTime = 1 s

Time = 0.1125

Courant Number mean: 0.224452 max: 0.926371
smoothSolver:  Solving for Ux, Initial residual = 5.54456e-05, Final residual = 9.03847e-06, No Iterations 7
smoothSolver:  Solving for Uy, Initial residual = 0.000135569, Final residual = 9.99709e-06, No Iterations 10
DICPCG:  Solving for p, Initial residual = 0.000158042, Final residual = 9.14597e-07, No Iterations 47
time step continuity errors : sum local = 2.02596e-09, global = -6.26305e-19, cumulative = 1.85305e-18
DICPCG:  Solving for p, Initial residual = 0.00014635, Final residual = 9.67969e-07, No Iterations 46
time step continuity errors : sum local = 2.14803e-09, global = -1.34174e-19, cumulative = 1.71888e-18
ExecutionTime = 0.4 s  ClockTime = 1 s

Time = 0.115

Courant Number mean: 0.224492 max: 0.92638
smoothSolver:  Solving for Ux, Initial residual = 4.98104e-05, Final residual = 8.12926e-06, No Iterations 7
smoothSolver:  Solving for Uy, Initial residual = 0.000121154, Final residual = 8.92155e-06, No Iterations 10
DICPCG:  Solving for p, Initial residual = 0.000141318, Final residual = 8.69439e-07, No Iterations 46
time step continuity errors : sum local = 1.93024e-09, global = 3.80327e-19, cumulative = 2.0992e-18
DICPCG:  Solving for p, Initial residual = 0.000130639, Final residual = 7.66124e-07, No Iterations 46
time step continuity errors : sum local = 1.70106e-09, global = -9.83259e-20, cumulative = 2.00088e-18
ExecutionTime = 0.41 s  ClockTime = 1 s

Time = 0.1175

Courant Number mean: 0.224527 max: 0.926387
smoothSolver:  Solving for Ux, Initial residual = 4.46314e-05, Final residual = 9.45095e-06, No Iterations 6
smoothSolver:  Solving for Uy, Initial residual = 0.000108465, Final residual = 7.98615e-06, No Iterations 10
DICPCG:  Solving for p, Initial residual = 0.000159788, Final residual = 8.90697e-07, No Iterations 46
time step continuity errors : sum local = 1.97791e-09, global = -2.02065e-19, cumulative = 1.79881e-18
DICPCG:  Solving for p, Initial residual = 0.000151147, Final residual = 8.16488e-07, No Iterations 46
time step continuity errors : sum local = 1.81229e-09, global = -3.02981e-19, cumulative = 1.49583e-18
ExecutionTime = 0.41 s  ClockTime = 1 s

Time = 0.12

Courant Number mean: 0.224559 max: 0.926395
smoothSolver:  Solving for Ux, Initial residual = 4.04587e-05, Final residual = 8.56727e-06, No Iterations 6
smoothSolver:  Solving for Uy, Initial residual = 9.69255e-05, Final residual = 9.22823e-06, No Iterations 9
DICPCG:  Solving for p, Initial residual = 0.000122498, Final residual = 7.217e-07, No Iterations 46
time step continuity errors : sum local = 1.60184e-09, global = -2.69837e-19, cumulative = 1.226e-18
DICPCG:  Solving for p, Initial residual = 0.000114888, Final residual = 9.31525e-07, No Iterations 45
time step continuity errors : sum local = 2.06648e-09, global = -5.82583e-19, cumulative = 6.43413e-19
ExecutionTime = 0.42 s  ClockTime = 1 s

Time = 0.1225

Courant Number mean: 0.224586 max: 0.926401
smoothSolver:  Solving for Ux, Initial residual = 3.62572e-05, Final residual = 9.97e-06, No Iterations 5
smoothSolver:  Solving for Uy, Initial residual = 8.72673e-05, Final residual = 8.32105e-06, No Iterations 9
DICPCG:  Solving for p, Initial residual = 0.000152355, Final residual = 7.76466e-07, No Iterations 46
time step continuity errors : sum local = 1.72321e-09, global = 2.58504e-19, cumulative = 9.01918e-19
DICPCG:  Solving for p, Initial residual = 0.000145784, Final residual = 9.60041e-07, No Iterations 45
time step continuity errors : sum local = 2.12988e-09, global = 2.42111e-19, cumulative = 1.14403e-18
ExecutionTime = 0.43 s  ClockTime = 1 s

Time = 0.125

Courant Number mean: 0.22461 max: 0.926406
smoothSolver:  Solving for Ux, Initial residual = 3.31954e-05, Final residual = 9.10695e-06, No Iterations 5
smoothSolver:  Solving for Uy, Initial residual = 7.8221e-05, Final residual = 9.6303e-06, No Iterations 8
DICPCG:  Solving for p, Initial residual = 0.000113807, Final residual = 9.39162e-07, No Iterations 45
time step continuity errors : sum local = 2.08235e-09, global = -5.19945e-19, cumulative = 6.24083e-19
DICPCG:  Solving for p, Initial residual = 0.000108172, Final residual = 7.99586e-07, No Iterations 45
time step continuity errors : sum local = 1.77309e-09, global = -3.13176e-19, cumulative = 3.10907e-19
ExecutionTime = 0.43 s  ClockTime = 1 s

Time = 0.1275

Courant Number mean: 0.224631 max: 0.926411
smoothSolver:  Solving for Ux, Initial residual = 2.98551e-05, Final residual = 8.20878e-06, No Iterations 5
smoothSolver:  Solving for Uy, Initial residual = 7.08101e-05, Final residual = 8.73528e-06, No Iterations 8
DICPCG:  Solving for p, Initial residual = 0.000104525, Final residual = 7.59566e-07, No Iterations 45
time step continuity errors : sum local = 1.68614e-09, global = 4.41404e-20, cumulative = 3.55048e-19
DICPCG:  Solving for p, Initial residual = 9.93575e-05, Final residual = 6.51602e-07, No Iterations 45
time step continuity errors : sum local = 1.44651e-09, global = 1.43511e-19, cumulative = 4.98559e-19
ExecutionTime = 0.44 s  ClockTime = 1 s

Time = 0.13

Courant Number mean: 0.22465 max: 0.926415
smoothSolver:  Solving for Ux, Initial residual = 2.70284e-05, Final residual = 9.63414e-06, No Iterations 4
smoothSolver:  Solving for Uy, Initial residual = 6.39284e-05, Final residual = 7.88356e-06, No Iterations 8
DICPCG:  Solving for p, Initial residual = 0.000136493, Final residual = 9.10167e-07, No Iterations 45
time step continuity errors : sum local = 2.01752e-09, global = 5.01323e-20, cumulative = 5.48691e-19
DICPCG:  Solving for p, Initial residual = 0.000131954, Final residual = 8.02753e-07, No Iterations 45
time step continuity errors : sum local = 1.77891e-09, global = 5.86936e-20, cumulative = 6.07385e-19
ExecutionTime = 0.44 s  ClockTime = 1 s

Time = 0.1325

Courant Number mean: 0.224667 max: 0.926419
smoothSolver:  Solving for Ux, Initial residual = 2.50201e-05, Final residual = 8.87928e-06, No Iterations 4
smoothSolver:  Solving for Uy, Initial residual = 5.75699e-05, Final residual = 9.15418e-06, No Iterations 7
DICPCG:  Solving for p, Initial residual = 0.000100763, Final residual = 7.39158e-07, No Iterations 45
time step continuity errors : sum local = 1.63807e-09, global = 2.72298e-20, cumulative = 6.34614e-19
DICPCG:  Solving for p, Initial residual = 9.6951e-05, Final residual = 6.45842e-07, No Iterations 45
time step continuity errors : sum local = 1.431e-09, global = -1.72271e-19, cumulative = 4.62344e-19
ExecutionTime = 0.45 s  ClockTime = 1 s

Time = 0.135

Courant Number mean: 0.224682 max: 0.926422
smoothSolver:  Solving for Ux, Initial residual = 2.26214e-05, Final residual = 8.05233e-06, No Iterations 4
smoothSolver:  Solving for Uy, Initial residual = 5.24787e-05, Final residual = 8.3651e-06, No Iterations 7
DICPCG:  Solving for p, Initial residual = 9.33513e-05, Final residual = 6.66203e-07, No Iterations 45
time step continuity errors : sum local = 1.47658e-09, global = -7.532e-20, cumulative = 3.87024e-19
DICPCG:  Solving for p, Initial residual = 8.98472e-05, Final residual = 9.04701e-07, No Iterations 44
time step continuity errors : sum local = 2.00254e-09, global = 4.74466e-19, cumulative = 8.61489e-19
ExecutionTime = 0.46 s  ClockTime = 1 s

Time = 0.1375

Courant Number mean: 0.224695 max: 0.926425
smoothSolver:  Solving for Ux, Initial residual = 2.06265e-05, Final residual = 9.51117e-06, No Iterations 3
smoothSolver:  Solving for Uy, Initial residual = 4.76834e-05, Final residual = 9.86019e-06, No Iterations 6
DICPCG:  Solving for p, Initial residual = 0.000108091, Final residual = 9.48023e-07, No Iterations 44
time step continuity errors : sum local = 2.09835e-09, global = -1.84978e-20, cumulative = 8.42991e-19
DICPCG:  Solving for p, Initial residual = 0.000105159, Final residual = 8.73944e-07, No Iterations 44
time step continuity errors : sum local = 1.93359e-09, global = -2.87006e-19, cumulative = 5.55986e-19
ExecutionTime = 0.46 s  ClockTime = 1 s

Time = 0.14

Courant Number mean: 0.224706 max: 0.926427
smoothSolver:  Solving for Ux, Initial residual = 1.92258e-05, Final residual = 8.8326e-06, No Iterations 3
smoothSolver:  Solving for Uy, Initial residual = 4.34777e-05, Final residual = 8.94841e-06, No Iterations 6
DICPCG:  Solving for p, Initial residual = 9.64311e-05, Final residual = 8.94342e-07, No Iterations 44
time step continuity errors : sum local = 1.97981e-09, global = -1.70549e-19, cumulative = 3.85436e-19
DICPCG:  Solving for p, Initial residual = 9.37781e-05, Final residual = 7.92418e-07, No Iterations 44
time step continuity errors : sum local = 1.75362e-09, global = -3.0585e-20, cumulative = 3.54851e-19
ExecutionTime = 0.47 s  ClockTime = 1 s

Time = 0.1425

Courant Number mean: 0.224717 max: 0.926429
smoothSolver:  Solving for Ux, Initial residual = 1.76773e-05, Final residual = 8.12518e-06, No Iterations 3
smoothSolver:  Solving for Uy, Initial residual = 3.98263e-05, Final residual = 8.19173e-06, No Iterations 6
DICPCG:  Solving for p, Initial residual = 8.8229e-05, Final residual = 7.97838e-07, No Iterations 44
time step continuity errors : sum local = 1.76629e-09, global = 1.39866e-19, cumulative = 4.94717e-19
DICPCG:  Solving for p, Initial residual = 8.58479e-05, Final residual = 7.19539e-07, No Iterations 44
time step continuity errors : sum local = 1.59239e-09, global = -1.30555e-19, cumulative = 3.64162e-19
ExecutionTime = 0.48 s  ClockTime = 1 s

Time = 0.145

Courant Number mean: 0.224726 max: 0.926431
smoothSolver:  Solving for Ux, Initial residual = 1.62613e-05, Final residual = 9.67338e-06, No Iterations 2
smoothSolver:  Solving for Uy, Initial residual = 3.64916e-05, Final residual = 9.73704e-06, No Iterations 5
DICPCG:  Solving for p, Initial residual = 0.000107047, Final residual = 7.71689e-07, No Iterations 44
time step continuity errors : sum local = 1.70709e-09, global = -3.69238e-19, cumulative = -5.07553e-21
DICPCG:  Solving for p, Initial residual = 0.000105207, Final residual = 7.26713e-07, No Iterations 44
time step continuity errors : sum local = 1.60671e-09, global = -1.08629e-19, cumulative = -1.13705e-19
ExecutionTime = 0.48 s  ClockTime = 1 s

Time = 0.1475

Courant Number mean: 0.224734 max: 0.926433
smoothSolver:  Solving for Ux, Initial residual = 1.54109e-05, Final residual = 9.11829e-06, No Iterations 2
smoothSolver:  Solving for Uy, Initial residual = 3.35588e-05, Final residual = 8.89502e-06, No Iterations 5
DICPCG:  Solving for p, Initial residual = 9.69111e-05, Final residual = 7.35884e-07, No Iterations 44
time step continuity errors : sum local = 1.62866e-09, global = -8.89219e-21, cumulative = -1.22597e-19
DICPCG:  Solving for p, Initial residual = 9.51626e-05, Final residual = 6.88163e-07, No Iterations 44
time step continuity errors : sum local = 1.52213e-09, global = 1.81111e-19, cumulative = 5.8514e-20
ExecutionTime = 0.49 s  ClockTime = 1 s

Time = 0.15

Courant Number mean: 0.224741 max: 0.926435
smoothSolver:  Solving for Ux, Initial residual = 1.43539e-05, Final residual = 8.49387e-06, No Iterations 2
smoothSolver:  Solving for Uy, Initial residual = 3.10516e-05, Final residual = 8.22031e-06, No Iterations 5
DICPCG:  Solving for p, Initial residual = 8.97008e-05, Final residual = 6.68499e-07, No Iterations 44
time step continuity errors : sum local = 1.4794e-09, global = -5.86006e-19, cumulative = -5.27492e-19
DICPCG:  Solving for p, Initial residual = 8.81417e-05, Final residual = 6.26787e-07, No Iterations 44
time step continuity errors : sum local = 1.38628e-09, global = 1.01485e-19, cumulative = -4.26007e-19
ExecutionTime = 0.5 s  ClockTime = 1 s

Time = 0.1525

Courant Number mean: 0.224747 max: 0.926436
smoothSolver:  Solving for Ux, Initial residual = 1.33681e-05, Final residual = 7.91008e-06, No Iterations 2
smoothSolver:  Solving for Uy, Initial residual = 2.87471e-05, Final residual = 9.87166e-06, No Iterations 4
DICPCG:  Solving for p, Initial residual = 6.16256e-05, Final residual = 8.91406e-07, No Iterations 43
time step continuity errors : sum local = 1.97093e-09, global = 2.05306e-19, cumulative = -2.20701e-19
DICPCG:  Solving for p, Initial residual = 6.05015e-05, Final residual = 8.10287e-07, No Iterations 43
time step continuity errors : sum local = 1.79151e-09, global = -3.33343e-19, cumulative = -5.54044e-19
ExecutionTime = 0.51 s  ClockTime = 1 s

Time = 0.155

Courant Number mean: 0.224753 max: 0.926437
smoothSolver:  Solving for Ux, Initial residual = 1.22971e-05, Final residual = 9.43657e-06, No Iterations 1
smoothSolver:  Solving for Uy, Initial residual = 2.69158e-05, Final residual = 9.30123e-06, No Iterations 4
DICPCG:  Solving for p, Initial residual = 0.000105793, Final residual = 9.33489e-07, No Iterations 43
time step continuity errors : sum local = 2.06276e-09, global = 4.48963e-19, cumulative = -1.05082e-19
DICPCG:  Solving for p, Initial residual = 0.000104846, Final residual = 9.4019e-07, No Iterations 43
time step continuity errors : sum local = 2.0777e-09, global = -1.33853e-19, cumulative = -2.38935e-19
ExecutionTime = 0.51 s  ClockTime = 1 s

Time = 0.1575

Courant Number mean: 0.224757 max: 0.926439
smoothSolver:  Solving for Ux, Initial residual = 1.20695e-05, Final residual = 9.14512e-06, No Iterations 1
smoothSolver:  Solving for Uy, Initial residual = 2.49136e-05, Final residual = 8.46952e-06, No Iterations 4
DICPCG:  Solving for p, Initial residual = 9.57577e-05, Final residual = 5.67049e-07, No Iterations 44
time step continuity errors : sum local = 1.25373e-09, global = -3.83197e-19, cumulative = -6.22132e-19
DICPCG:  Solving for p, Initial residual = 9.54693e-05, Final residual = 9.47698e-07, No Iterations 43
time step continuity errors : sum local = 2.09522e-09, global = 3.47421e-19, cumulative = -2.74711e-19
ExecutionTime = 0.52 s  ClockTime = 1 s

Time = 0.16

Courant Number mean: 0.224762 max: 0.92644
smoothSolver:  Solving for Ux, Initial residual = 1.1495e-05, Final residual = 8.67874e-06, No Iterations 1
smoothSolver:  Solving for Uy, Initial residual = 2.33353e-05, Final residual = 7.91143e-06, No Iterations 4
DICPCG:  Solving for p, Initial residual = 9.00749e-05, Final residual = 9.80757e-07, No Iterations 40
time step continuity errors : sum local = 2.17024e-09, global = -6.60711e-21, cumulative = -2.81318e-19
DICPCG:  Solving for p, Initial residual = 8.98189e-05, Final residual = 9.63162e-07, No Iterations 43
time step continuity errors : sum local = 2.13121e-09, global = -5.77812e-19, cumulative = -8.59129e-19
ExecutionTime = 0.53 s  ClockTime = 1 s

Time = 0.1625

Courant Number mean: 0.224766 max: 0.92644
smoothSolver:  Solving for Ux, Initial residual = 1.09119e-05, Final residual = 8.21977e-06, No Iterations 1
smoothSolver:  Solving for Uy, Initial residual = 2.18721e-05, Final residual = 9.61302e-06, No Iterations 3
DICPCG:  Solving for p, Initial residual = 6.36426e-05, Final residual = 8.33201e-07, No Iterations 43
time step continuity errors : sum local = 1.84329e-09, global = -1.94801e-20, cumulative = -8.78609e-19
DICPCG:  Solving for p, Initial residual = 6.33563e-05, Final residual = 7.79045e-07, No Iterations 43
time step continuity errors : sum local = 1.72348e-09, global = 2.08791e-19, cumulative = -6.69819e-19
ExecutionTime = 0.54 s  ClockTime = 1 s

Time = 0.165

Courant Number mean: 0.224769 max: 0.926441
smoothSolver:  Solving for Ux, Initial residual = 1.01573e-05, Final residual = 7.7041e-06, No Iterations 1
smoothSolver:  Solving for Uy, Initial residual = 2.07932e-05, Final residual = 9.21885e-06, No Iterations 3
DICPCG:  Solving for p, Initial residual = 6.12889e-05, Final residual = 8.95205e-07, No Iterations 36
time step continuity errors : sum local = 1.98588e-09, global = 4.21118e-19, cumulative = -2.48701e-19
DICPCG:  Solving for p, Initial residual = 6.09127e-05, Final residual = 8.77419e-07, No Iterations 37
time step continuity errors : sum local = 1.95087e-09, global = 3.16138e-19, cumulative = 6.74372e-20
ExecutionTime = 0.54 s  ClockTime = 1 s

Time = 0.1675

Courant Number mean: 0.224772 max: 0.926442
smoothSolver:  Solving for Ux, Initial residual = 9.61658e-06, Final residual = 9.61658e-06, No Iterations 0
smoothSolver:  Solving for Uy, Initial residual = 1.96835e-05, Final residual = 8.7315e-06, No Iterations 3
DICPCG:  Solving for p, Initial residual = 0.000105891, Final residual = 6.13263e-07, No Iterations 44
time step continuity errors : sum local = 1.35293e-09, global = 5.52277e-19, cumulative = 6.19715e-19
DICPCG:  Solving for p, Initial residual = 0.00010597, Final residual = 6.4617e-07, No Iterations 44
time step continuity errors : sum local = 1.426e-09, global = -4.15694e-19, cumulative = 2.0402e-19
ExecutionTime = 0.55 s  ClockTime = 1 s

Time = 0.17

Courant Number mean: 0.224775 max: 0.926443
smoothSolver:  Solving for Ux, Initial residual = 9.89371e-06, Final residual = 9.89371e-06, No Iterations 0
smoothSolver:  Solving for Uy, Initial residual = 1.84219e-05, Final residual = 7.96577e-06, No Iterations 3
DICPCG:  Solving for p, Initial residual = 0.000100045, Final residual = 8.51679e-07, No Iterations 37
time step continuity errors : sum local = 1.88301e-09, global = 2.06795e-23, cumulative = 2.04041e-19
DICPCG:  Solving for p, Initial residual = 0.000100595, Final residual = 8.73765e-07, No Iterations 37
time step continuity errors : sum local = 1.93129e-09, global = -4.69063e-20, cumulative = 1.57135e-19
ExecutionTime = 0.55 s  ClockTime = 1 s

Time = 0.1725

Courant Number mean: 0.224777 max: 0.926443
smoothSolver:  Solving for Ux, Initial residual = 9.7984e-06, Final residual = 9.7984e-06, No Iterations 0
smoothSolver:  Solving for Uy, Initial residual = 1.75001e-05, Final residual = 9.81791e-06, No Iterations 2
DICPCG:  Solving for p, Initial residual = 7.31229e-05, Final residual = 7.65473e-07, No Iterations 37
time step continuity errors : sum local = 1.69377e-09, global = -1.77766e-19, cumulative = -2.06317e-20
DICPCG:  Solving for p, Initial residual = 7.37489e-05, Final residual = 9.36572e-07, No Iterations 37
time step continuity errors : sum local = 2.07789e-09, global = -2.87456e-19, cumulative = -3.08087e-19
ExecutionTime = 0.56 s  ClockTime = 1 s

Time = 0.175

Courant Number mean: 0.224779 max: 0.926444
smoothSolver:  Solving for Ux, Initial residual = 9.40901e-06, Final residual = 9.40901e-06, No Iterations 0
smoothSolver:  Solving for Uy, Initial residual = 1.68978e-05, Final residual = 9.53065e-06, No Iterations 2
DICPCG:  Solving for p, Initial residual = 7.14934e-05, Final residual = 7.74124e-07, No Iterations 43
time step continuity errors : sum local = 1.70958e-09, global = -1.05688e-19, cumulative = -4.13775e-19
DICPCG:  Solving for p, Initial residual = 7.19956e-05, Final residual = 8.00561e-07, No Iterations 43
time step continuity errors : sum local = 1.76835e-09, global = 7.54285e-20, cumulative = -3.38347e-19
ExecutionTime = 0.57 s  ClockTime = 1 s

Time = 0.1775

Courant Number mean: 0.224781 max: 0.926444
smoothSolver:  Solving for Ux, Initial residual = 9.11555e-06, Final residual = 9.11555e-06, No Iterations 0
smoothSolver:  Solving for Uy, Initial residual = 1.62737e-05, Final residual = 9.17193e-06, No Iterations 2
DICPCG:  Solving for p, Initial residual = 6.97811e-05, Final residual = 9.16395e-07, No Iterations 36
time step continuity errors : sum local = 2.02444e-09, global = 4.47453e-19, cumulative = 1.09106e-19
DICPCG:  Solving for p, Initial residual = 7.01064e-05, Final residual = 9.59524e-07, No Iterations 36
time step continuity errors : sum local = 2.11723e-09, global = -6.6617e-19, cumulative = -5.57063e-19
ExecutionTime = 0.57 s  ClockTime = 1 s

Time = 0.18

Courant Number mean: 0.224783 max: 0.926445
smoothSolver:  Solving for Ux, Initial residual = 8.86998e-06, Final residual = 8.86998e-06, No Iterations 0
smoothSolver:  Solving for Uy, Initial residual = 1.56743e-05, Final residual = 8.83821e-06, No Iterations 2
DICPCG:  Solving for p, Initial residual = 6.71739e-05, Final residual = 9.55822e-07, No Iterations 36
time step continuity errors : sum local = 2.10781e-09, global = 2.5746e-19, cumulative = -2.99604e-19
DICPCG:  Solving for p, Initial residual = 6.75304e-05, Final residual = 9.95802e-07, No Iterations 36
time step continuity errors : sum local = 2.19832e-09, global = -1.05233e-19, cumulative = -4.04836e-19
ExecutionTime = 0.58 s  ClockTime = 1 s

Time = 0.1825

Courant Number mean: 0.224784 max: 0.926445
smoothSolver:  Solving for Ux, Initial residual = 8.61723e-06, Final residual = 8.61723e-06, No Iterations 0
smoothSolver:  Solving for Uy, Initial residual = 1.50868e-05, Final residual = 8.50329e-06, No Iterations 2
DICPCG:  Solving for p, Initial residual = 6.49536e-05, Final residual = 7.257e-07, No Iterations 43
time step continuity errors : sum local = 1.60285e-09, global = 3.71399e-19, cumulative = -3.34375e-20
DICPCG:  Solving for p, Initial residual = 6.53703e-05, Final residual = 7.08391e-07, No Iterations 43
time step continuity errors : sum local = 1.56544e-09, global = -7.49374e-20, cumulative = -1.08375e-19
ExecutionTime = 0.59 s  ClockTime = 1 s

Time = 0.185

Courant Number mean: 0.224786 max: 0.926445
smoothSolver:  Solving for Ux, Initial residual = 8.35544e-06, Final residual = 8.35544e-06, No Iterations 0
smoothSolver:  Solving for Uy, Initial residual = 1.45374e-05, Final residual = 8.17618e-06, No Iterations 2
DICPCG:  Solving for p, Initial residual = 6.35852e-05, Final residual = 8.23225e-07, No Iterations 36
time step continuity errors : sum local = 1.81868e-09, global = 2.50077e-19, cumulative = 1.41703e-19
DICPCG:  Solving for p, Initial residual = 6.38693e-05, Final residual = 8.84664e-07, No Iterations 36
time step continuity errors : sum local = 1.95263e-09, global = -1.97769e-19, cumulative = -5.6066e-20
ExecutionTime = 0.6 s  ClockTime = 1 s

Time = 0.1875

Courant Number mean: 0.224787 max: 0.926445
smoothSolver:  Solving for Ux, Initial residual = 8.12974e-06, Final residual = 8.12974e-06, No Iterations 0
smoothSolver:  Solving for Uy, Initial residual = 1.40204e-05, Final residual = 7.88974e-06, No Iterations 2
DICPCG:  Solving for p, Initial residual = 6.11486e-05, Final residual = 8.84148e-07, No Iterations 37
time step continuity errors : sum local = 1.96323e-09, global = -7.62728e-19, cumulative = -8.18794e-19
DICPCG:  Solving for p, Initial residual = 6.14668e-05, Final residual = 7.03557e-07, No Iterations 43
time step continuity errors : sum local = 1.55328e-09, global = -2.74955e-19, cumulative = -1.09375e-18
ExecutionTime = 0.6 s  ClockTime = 1 s

Time = 0.19

Courant Number mean: 0.224789 max: 0.926446
smoothSolver:  Solving for Ux, Initial residual = 7.88806e-06, Final residual = 7.88806e-06, No Iterations 0
smoothSolver:  Solving for Uy, Initial residual = 1.35035e-05, Final residual = 7.5851e-06, No Iterations 2
DICPCG:  Solving for p, Initial residual = 5.9599e-05, Final residual = 6.39184e-07, No Iterations 43
time step continuity errors : sum local = 1.41155e-09, global = -3.88961e-19, cumulative = -1.48271e-18
DICPCG:  Solving for p, Initial residual = 5.98892e-05, Final residual = 9.73563e-07, No Iterations 38
time step continuity errors : sum local = 2.16277e-09, global = -1.62427e-19, cumulative = -1.64514e-18
ExecutionTime = 0.61 s  ClockTime = 1 s

Time = 0.1925

Courant Number mean: 0.22479 max: 0.926446
smoothSolver:  Solving for Ux, Initial residual = 7.6546e-06, Final residual = 7.6546e-06, No Iterations 0
smoothSolver:  Solving for Uy, Initial residual = 1.30154e-05, Final residual = 9.65425e-06, No Iterations 1
DICPCG:  Solving for p, Initial residual = 3.30966e-05, Final residual = 8.60272e-07, No Iterations 41
time step continuity errors : sum local = 1.89586e-09, global = 8.63215e-20, cumulative = -1.55882e-18
DICPCG:  Solving for p, Initial residual = 3.35241e-05, Final residual = 9.10712e-07, No Iterations 36
time step continuity errors : sum local = 2.03338e-09, global = -2.34252e-19, cumulative = -1.79307e-18
ExecutionTime = 0.62 s  ClockTime = 1 s

Time = 0.195

Courant Number mean: 0.224791 max: 0.926446
smoothSolver:  Solving for Ux, Initial residual = 7.27278e-06, Final residual = 7.27278e-06, No Iterations 0
smoothSolver:  Solving for Uy, Initial residual = 1.27813e-05, Final residual = 9.54751e-06, No Iterations 1
DICPCG:  Solving for p, Initial residual = 3.27246e-05, Final residual = 9.3904e-07, No Iterations 41
time step continuity errors : sum local = 2.07041e-09, global = 5.02833e-19, cumulative = -1.29024e-18
DICPCG:  Solving for p, Initial residual = 3.29272e-05, Final residual = 8.66997e-07, No Iterations 36
time step continuity errors : sum local = 1.9372e-09, global = -1.99811e-19, cumulative = -1.49005e-18
ExecutionTime = 0.62 s  ClockTime = 1 s

Time = 0.1975

Courant Number mean: 0.224792 max: 0.926446
smoothSolver:  Solving for Ux, Initial residual = 7.00305e-06, Final residual = 7.00305e-06, No Iterations 0
smoothSolver:  Solving for Uy, Initial residual = 1.2461e-05, Final residual = 9.33168e-06, No Iterations 1
DICPCG:  Solving for p, Initial residual = 3.16176e-05, Final residual = 9.16095e-07, No Iterations 41
time step continuity errors : sum local = 2.01907e-09, global = -5.88787e-19, cumulative = -2.07883e-18
DICPCG:  Solving for p, Initial residual = 3.18649e-05, Final residual = 9.90794e-07, No Iterations 35
time step continuity errors : sum local = 2.21933e-09, global = 1.24139e-19, cumulative = -1.95469e-18
ExecutionTime = 0.63 s  ClockTime = 1 s

Time = 0.2

Courant Number mean: 0.224793 max: 0.926446
smoothSolver:  Solving for Ux, Initial residual = 6.77841e-06, Final residual = 6.77841e-06, No Iterations 0
smoothSolver:  Solving for Uy, Initial residual = 1.21602e-05, Final residual = 9.11743e-06, No Iterations 1
DICPCG:  Solving for p, Initial residual = 3.08408e-05, Final residual = 9.47465e-07, No Iterations 41
time step continuity errors : sum local = 2.08878e-09, global = 2.17455e-19, cumulative = -1.73724e-18
DICPCG:  Solving for p, Initial residual = 3.10335e-05, Final residual = 8.91703e-07, No Iterations 36
time step continuity errors : sum local = 1.99405e-09, global = -7.77736e-19, cumulative = -2.51497e-18
ExecutionTime = 0.64 s  ClockTime = 1 s

Time = 0.2025

Courant Number mean: 0.224794 max: 0.926446
smoothSolver:  Solving for Ux, Initial residual = 6.57887e-06, Final residual = 6.57887e-06, No Iterations 0
smoothSolver:  Solving for Uy, Initial residual = 1.18536e-05, Final residual = 8.89247e-06, No Iterations 1
DICPCG:  Solving for p, Initial residual = 2.99817e-05, Final residual = 8.69136e-07, No Iterations 41
time step continuity errors : sum local = 1.91508e-09, global = 2.02142e-19, cumulative = -2.31283e-18
DICPCG:  Solving for p, Initial residual = 3.01917e-05, Final residual = 9.15186e-07, No Iterations 35
time step continuity errors : sum local = 2.05185e-09, global = 3.4147e-20, cumulative = -2.27868e-18
ExecutionTime = 0.64 s  ClockTime = 1 s

Time = 0.205

Courant Number mean: 0.224795 max: 0.926446
smoothSolver:  Solving for Ux, Initial residual = 6.39394e-06, Final residual = 6.39394e-06, No Iterations 0
smoothSolver:  Solving for Uy, Initial residual = 1.15615e-05, Final residual = 8.67977e-06, No Iterations 1
DICPCG:  Solving for p, Initial residual = 2.92489e-05, Final residual = 8.81354e-07, No Iterations 41
time step continuity errors : sum local = 1.94284e-09, global = 7.07762e-19, cumulative = -1.57092e-18
DICPCG:  Solving for p, Initial residual = 2.94195e-05, Final residual = 9.77168e-07, No Iterations 35
time step continuity errors : sum local = 2.19161e-09, global = 6.5249e-20, cumulative = -1.50567e-18
ExecutionTime = 0.65 s  ClockTime = 1 s

Time = 0.2075

Courant Number mean: 0.224796 max: 0.926446
smoothSolver:  Solving for Ux, Initial residual = 6.2206e-06, Final residual = 6.2206e-06, No Iterations 0
smoothSolver:  Solving for Uy, Initial residual = 1.12664e-05, Final residual = 8.46196e-06, No Iterations 1
DICPCG:  Solving for p, Initial residual = 2.83735e-05, Final residual = 8.65212e-07, No Iterations 41
time step continuity errors : sum local = 1.90622e-09, global = -6.03263e-19, cumulative = -2.10894e-18
DICPCG:  Solving for p, Initial residual = 2.85936e-05, Final residual = 9.57211e-07, No Iterations 35
time step continuity errors : sum local = 2.14761e-09, global = -2.51189e-19, cumulative = -2.36013e-18
ExecutionTime = 0.66 s  ClockTime = 1 s

Time = 0.21

Courant Number mean: 0.224797 max: 0.926447
smoothSolver:  Solving for Ux, Initial residual = 6.05605e-06, Final residual = 6.05605e-06, No Iterations 0
smoothSolver:  Solving for Uy, Initial residual = 1.09854e-05, Final residual = 8.25244e-06, No Iterations 1
DICPCG:  Solving for p, Initial residual = 2.76929e-05, Final residual = 9.80787e-07, No Iterations 40
time step continuity errors : sum local = 2.17518e-09, global = -5.60565e-19, cumulative = -2.92069e-18
DICPCG:  Solving for p, Initial residual = 2.78519e-05, Final residual = 9.27073e-07, No Iterations 36
time step continuity errors : sum local = 2.0758e-09, global = -5.12836e-19, cumulative = -3.43353e-18
ExecutionTime = 0.66 s  ClockTime = 1 s

Time = 0.2125

Courant Number mean: 0.224797 max: 0.926447
smoothSolver:  Solving for Ux, Initial residual = 5.89831e-06, Final residual = 5.89831e-06, No Iterations 0
smoothSolver:  Solving for Uy, Initial residual = 1.0704e-05, Final residual = 8.03779e-06, No Iterations 1
DICPCG:  Solving for p, Initial residual = 2.70541e-05, Final residual = 9.95976e-07, No Iterations 40
time step continuity errors : sum local = 2.20307e-09, global = 2.92124e-19, cumulative = -3.1414e-18
DICPCG:  Solving for p, Initial residual = 2.71897e-05, Final residual = 9.73858e-07, No Iterations 35
time step continuity errors : sum local = 2.18852e-09, global = 4.42257e-19, cumulative = -2.69915e-18
ExecutionTime = 0.66 s  ClockTime = 1 s

Time = 0.215

Courant Number mean: 0.224798 max: 0.926447
smoothSolver:  Solving for Ux, Initial residual = 5.74757e-06, Final residual = 5.74757e-06, No Iterations 0
smoothSolver:  Solving for Uy, Initial residual = 1.04347e-05, Final residual = 7.84013e-06, No Iterations 1
DICPCG:  Solving for p, Initial residual = 2.63901e-05, Final residual = 9.70298e-07, No Iterations 40
time step continuity errors : sum local = 2.15189e-09, global = -5.89475e-19, cumulative = -3.28862e-18
DICPCG:  Solving for p, Initial residual = 2.65207e-05, Final residual = 9.94859e-07, No Iterations 35
time step continuity errors : sum local = 2.23873e-09, global = 4.40629e-20, cumulative = -3.24456e-18
ExecutionTime = 0.67 s  ClockTime = 1 s

Time = 0.2175

Courant Number mean: 0.224799 max: 0.926447
smoothSolver:  Solving for Ux, Initial residual = 5.59985e-06, Final residual = 5.59985e-06, No Iterations 0
smoothSolver:  Solving for Uy, Initial residual = 1.01642e-05, Final residual = 7.63799e-06, No Iterations 1
DICPCG:  Solving for p, Initial residual = 2.56277e-05, Final residual = 9.52823e-07, No Iterations 40
time step continuity errors : sum local = 2.11155e-09, global = -5.46451e-19, cumulative = -3.79101e-18
DICPCG:  Solving for p, Initial residual = 2.57689e-05, Final residual = 9.70798e-07, No Iterations 35
time step continuity errors : sum local = 2.18524e-09, global = 5.83721e-19, cumulative = -3.20729e-18
ExecutionTime = 0.68 s  ClockTime = 1 s

Time = 0.22

Courant Number mean: 0.2248 max: 0.926447
smoothSolver:  Solving for Ux, Initial residual = 5.4579e-06, Final residual = 5.4579e-06, No Iterations 0
smoothSolver:  Solving for Uy, Initial residual = 9.90855e-06, Final residual = 9.90855e-06, No Iterations 0
DICPCG:  Solving for p, Initial residual = 1.46945e-06, Final residual = 9.7259e-07, No Iterations 8
time step continuity errors : sum local = 2.20579e-09, global = 5.7334e-19, cumulative = -2.63395e-18
DICPCG:  Solving for p, Initial residual = 1.42308e-06, Final residual = 9.1027e-07, No Iterations 2
time step continuity errors : sum local = 2.0837e-09, global = 2.18727e-19, cumulative = -2.41522e-18
ExecutionTime = 0.68 s  ClockTime = 1 s

Time = 0.2225

Courant Number mean: 0.2248 max: 0.926447
smoothSolver:  Solving for Ux, Initial residual = 5.14752e-06, Final residual = 5.14752e-06, No Iterations 0
smoothSolver:  Solving for Uy, Initial residual = 9.92171e-06, Final residual = 9.92171e-06, No Iterations 0
DICPCG:  Solving for p, Initial residual = 1.58302e-06, Final residual = 9.94322e-07, No Iterations 2
time step continuity errors : sum local = 2.26602e-09, global = -2.93168e-19, cumulative = -2.70839e-18
DICPCG:  Solving for p, Initial residual = 1.69116e-06, Final residual = 7.47715e-07, No Iterations 5
time step continuity errors : sum local = 1.75881e-09, global = -6.91259e-19, cumulative = -3.39965e-18
ExecutionTime = 0.68 s  ClockTime = 1 s

Time = 0.225

Courant Number mean: 0.224801 max: 0.926447
smoothSolver:  Solving for Ux, Initial residual = 4.93996e-06, Final residual = 4.93996e-06, No Iterations 0
smoothSolver:  Solving for Uy, Initial residual = 9.86839e-06, Final residual = 9.86839e-06, No Iterations 0
DICPCG:  Solving for p, Initial residual = 1.41547e-06, Final residual = 8.5782e-07, No Iterations 3
time step continuity errors : sum local = 2.01953e-09, global = 4.41094e-19, cumulative = -2.95855e-18
DICPCG:  Solving for p, Initial residual = 1.50519e-06, Final residual = 9.31464e-07, No Iterations 2
time step continuity errors : sum local = 2.19466e-09, global = -3.60434e-19, cumulative = -3.31899e-18
ExecutionTime = 0.68 s  ClockTime = 1 s

Time = 0.2275

Courant Number mean: 0.224801 max: 0.926447
smoothSolver:  Solving for Ux, Initial residual = 4.83343e-06, Final residual = 4.83343e-06, No Iterations 0
smoothSolver:  Solving for Uy, Initial residual = 9.73976e-06, Final residual = 9.73976e-06, No Iterations 0
DICPCG:  Solving for p, Initial residual = 1.72495e-06, Final residual = 6.57843e-07, No Iterations 2
time step continuity errors : sum local = 1.60294e-09, global = 2.43243e-20, cumulative = -3.29466e-18
DICPCG:  Solving for p, Initial residual = 1.24353e-06, Final residual = 8.23719e-07, No Iterations 1
time step continuity errors : sum local = 1.97455e-09, global = 1.74685e-19, cumulative = -3.11998e-18
ExecutionTime = 0.68 s  ClockTime = 1 s

Time = 0.23

Courant Number mean: 0.224801 max: 0.926447
smoothSolver:  Solving for Ux, Initial residual = 4.74456e-06, Final residual = 4.74456e-06, No Iterations 0
smoothSolver:  Solving for Uy, Initial residual = 9.56764e-06, Final residual = 9.56764e-06, No Iterations 0
DICPCG:  Solving for p, Initial residual = 1.1776e-06, Final residual = 8.71185e-07, No Iterations 1
time step continuity errors : sum local = 2.08304e-09, global = 2.6049e-19, cumulative = -2.85949e-18
DICPCG:  Solving for p, Initial residual = 1.22183e-06, Final residual = 8.38513e-07, No Iterations 5
time step continuity errors : sum local = 2.09276e-09, global = -4.57452e-19, cumulative = -3.31694e-18
ExecutionTime = 0.68 s  ClockTime = 1 s

Time = 0.2325

Courant Number mean: 0.224802 max: 0.926447
smoothSolver:  Solving for Ux, Initial residual = 4.49282e-06, Final residual = 4.49282e-06, No Iterations 0
smoothSolver:  Solving for Uy, Initial residual = 9.85597e-06, Final residual = 9.85597e-06, No Iterations 0
DICPCG:  Solving for p, Initial residual = 1.46131e-06, Final residual = 9.23309e-07, No Iterations 3
time step continuity errors : sum local = 2.26947e-09, global = 1.11964e-19, cumulative = -3.20498e-18
DICPCG:  Solving for p, Initial residual = 1.47704e-06, Final residual = 7.62451e-07, No Iterations 2
time step continuity errors : sum local = 1.92628e-09, global = -4.15193e-19, cumulative = -3.62017e-18
ExecutionTime = 0.69 s  ClockTime = 1 s

Time = 0.235

Courant Number mean: 0.224802 max: 0.926447
smoothSolver:  Solving for Ux, Initial residual = 4.49486e-06, Final residual = 4.49486e-06, No Iterations 0
smoothSolver:  Solving for Uy, Initial residual = 9.65625e-06, Final residual = 9.65625e-06, No Iterations 0
DICPCG:  Solving for p, Initial residual = 1.47922e-06, Final residual = 9.82042e-07, No Iterations 1
time step continuity errors : sum local = 2.3985e-09, global = -3.41662e-19, cumulative = -3.96183e-18
DICPCG:  Solving for p, Initial residual = 1.36424e-06, Final residual = 8.84701e-07, No Iterations 1
time step continuity errors : sum local = 2.18797e-09, global = -6.21109e-20, cumulative = -4.02394e-18
ExecutionTime = 0.69 s  ClockTime = 1 s

Time = 0.2375

Courant Number mean: 0.224802 max: 0.926447
smoothSolver:  Solving for Ux, Initial residual = 4.44008e-06, Final residual = 4.44008e-06, No Iterations 0
smoothSolver:  Solving for Uy, Initial residual = 9.47382e-06, Final residual = 9.47382e-06, No Iterations 0
DICPCG:  Solving for p, Initial residual = 1.2366e-06, Final residual = 5.72562e-07, No Iterations 3
time step continuity errors : sum local = 1.48364e-09, global = -1.74504e-19, cumulative = -4.19845e-18
DICPCG:  Solving for p, Initial residual = 1.10329e-06, Final residual = 7.2377e-07, No Iterations 2
time step continuity errors : sum local = 1.81402e-09, global = 2.58034e-19, cumulative = -3.94041e-18
ExecutionTime = 0.69 s  ClockTime = 1 s

Time = 0.24

Courant Number mean: 0.224803 max: 0.926447
smoothSolver:  Solving for Ux, Initial residual = 4.43651e-06, Final residual = 4.43651e-06, No Iterations 0
smoothSolver:  Solving for Uy, Initial residual = 9.15445e-06, Final residual = 9.15445e-06, No Iterations 0
DICPCG:  Solving for p, Initial residual = 1.37083e-06, Final residual = 4.33708e-07, No Iterations 2
time step continuity errors : sum local = 1.17648e-09, global = 2.10714e-19, cumulative = -3.7297e-18
DICPCG:  Solving for p, Initial residual = 8.38044e-07, Final residual = 8.38044e-07, No Iterations 0
time step continuity errors : sum local = 2.06911e-09, global = -1.87734e-19, cumulative = -3.91743e-18
ExecutionTime = 0.69 s  ClockTime = 1 s

Time = 0.2425

Courant Number mean: 0.224803 max: 0.926447
smoothSolver:  Solving for Ux, Initial residual = 4.37758e-06, Final residual = 4.37758e-06, No Iterations 0
smoothSolver:  Solving for Uy, Initial residual = 9.04435e-06, Final residual = 9.04435e-06, No Iterations 0
DICPCG:  Solving for p, Initial residual = 1.33007e-06, Final residual = 9.81647e-07, No Iterations 4
time step continuity errors : sum local = 2.42038e-09, global = 8.90667e-20, cumulative = -3.82837e-18
DICPCG:  Solving for p, Initial residual = 1.60543e-06, Final residual = 6.18289e-07, No Iterations 2
time step continuity errors : sum local = 1.63381e-09, global = -9.65268e-20, cumulative = -3.92489e-18
ExecutionTime = 0.7 s  ClockTime = 1 s

Time = 0.245

Courant Number mean: 0.224803 max: 0.926447
smoothSolver:  Solving for Ux, Initial residual = 4.20449e-06, Final residual = 4.20449e-06, No Iterations 0
smoothSolver:  Solving for Uy, Initial residual = 9.15918e-06, Final residual = 9.15918e-06, No Iterations 0
DICPCG:  Solving for p, Initial residual = 1.20749e-06, Final residual = 6.15243e-07, No Iterations 1
time step continuity errors : sum local = 1.62761e-09, global = 1.46008e-19, cumulative = -3.77889e-18
DICPCG:  Solving for p, Initial residual = 8.03577e-07, Final residual = 8.03577e-07, No Iterations 0
time step continuity errors : sum local = 2.04632e-09, global = -2.7176e-19, cumulative = -4.05065e-18
ExecutionTime = 0.7 s  ClockTime = 1 s

Time = 0.2475

Courant Number mean: 0.224804 max: 0.926447
smoothSolver:  Solving for Ux, Initial residual = 4.16797e-06, Final residual = 4.16797e-06, No Iterations 0
smoothSolver:  Solving for Uy, Initial residual = 9.03595e-06, Final residual = 9.03595e-06, No Iterations 0
DICPCG:  Solving for p, Initial residual = 1.09785e-06, Final residual = 6.60007e-07, No Iterations 1
time step continuity errors : sum local = 1.73836e-09, global = -2.80213e-19, cumulative = -4.33086e-18
DICPCG:  Solving for p, Initial residual = 8.97931e-07, Final residual = 8.97931e-07, No Iterations 0
time step continuity errors : sum local = 2.26361e-09, global = -1.40517e-20, cumulative = -4.34491e-18
ExecutionTime = 0.7 s  ClockTime = 1 s

Time = 0.25

Courant Number mean: 0.224804 max: 0.926447
smoothSolver:  Solving for Ux, Initial residual = 4.11921e-06, Final residual = 4.11921e-06, No Iterations 0
smoothSolver:  Solving for Uy, Initial residual = 8.90838e-06, Final residual = 8.90838e-06, No Iterations 0
DICPCG:  Solving for p, Initial residual = 1.23192e-06, Final residual = 8.97179e-07, No Iterations 2
time step continuity errors : sum local = 2.26707e-09, global = -5.47749e-19, cumulative = -4.89266e-18
DICPCG:  Solving for p, Initial residual = 1.48803e-06, Final residual = 7.75316e-07, No Iterations 1
time step continuity errors : sum local = 1.99645e-09, global = 4.80401e-19, cumulative = -4.41226e-18
ExecutionTime = 0.7 s  ClockTime = 1 s

Time = 0.2525

Courant Number mean: 0.224805 max: 0.926447
smoothSolver:  Solving for Ux, Initial residual = 4.02808e-06, Final residual = 4.02808e-06, No Iterations 0
smoothSolver:  Solving for Uy, Initial residual = 8.74245e-06, Final residual = 8.74245e-06, No Iterations 0
DICPCG:  Solving for p, Initial residual = 1.36346e-06, Final residual = 7.01778e-07, No Iterations 1
time step continuity errors : sum local = 1.83358e-09, global = -4.39703e-19, cumulative = -4.85196e-18
DICPCG:  Solving for p, Initial residual = 1.08226e-06, Final residual = 7.76432e-07, No Iterations 1
time step continuity errors : sum local = 1.99918e-09, global = -2.68182e-19, cumulative = -5.12014e-18
ExecutionTime = 0.7 s  ClockTime = 1 s

Time = 0.255

Courant Number mean: 0.224805 max: 0.926447
smoothSolver:  Solving for Ux, Initial residual = 3.9844e-06, Final residual = 3.9844e-06, No Iterations 0
smoothSolver:  Solving for Uy, Initial residual = 8.63083e-06, Final residual = 8.63083e-06, No Iterations 0
DICPCG:  Solving for p, Initial residual = 1.17914e-06, Final residual = 8.04167e-07, No Iterations 1
time step continuity errors : sum local = 2.06082e-09, global = 7.8379e-19, cumulative = -4.33635e-18
DICPCG:  Solving for p, Initial residual = 1.17293e-06, Final residual = 9.98488e-07, No Iterations 1
time step continuity errors : sum local = 2.49178e-09, global = -4.95517e-19, cumulative = -4.83187e-18
ExecutionTime = 0.7 s  ClockTime = 1 s

Time = 0.2575

Courant Number mean: 0.224805 max: 0.926447
smoothSolver:  Solving for Ux, Initial residual = 3.93066e-06, Final residual = 3.93066e-06, No Iterations 0
smoothSolver:  Solving for Uy, Initial residual = 8.52724e-06, Final residual = 8.52724e-06, No Iterations 0
DICPCG:  Solving for p, Initial residual = 1.45267e-06, Final residual = 8.08132e-07, No Iterations 3
time step continuity errors : sum local = 2.092e-09, global = -6.64081e-19, cumulative = -5.49595e-18
DICPCG:  Solving for p, Initial residual = 1.38892e-06, Final residual = 5.74085e-07, No Iterations 2
time step continuity errors : sum local = 1.58746e-09, global = 2.03564e-19, cumulative = -5.29239e-18
ExecutionTime = 0.7 s  ClockTime = 1 s

Time = 0.26

Courant Number mean: 0.224806 max: 0.926447
smoothSolver:  Solving for Ux, Initial residual = 3.81747e-06, Final residual = 3.81747e-06, No Iterations 0
smoothSolver:  Solving for Uy, Initial residual = 8.58905e-06, Final residual = 8.58905e-06, No Iterations 0
DICPCG:  Solving for p, Initial residual = 1.34116e-06, Final residual = 7.1422e-07, No Iterations 2
time step continuity errors : sum local = 1.90387e-09, global = -5.64334e-19, cumulative = -5.85672e-18
DICPCG:  Solving for p, Initial residual = 1.18041e-06, Final residual = 9.73309e-07, No Iterations 1
time step continuity errors : sum local = 2.47434e-09, global = -3.28939e-19, cumulative = -6.18566e-18
ExecutionTime = 0.7 s  ClockTime = 1 s

Time = 0.2625

Courant Number mean: 0.224806 max: 0.926447
smoothSolver:  Solving for Ux, Initial residual = 3.75489e-06, Final residual = 3.75489e-06, No Iterations 0
smoothSolver:  Solving for Uy, Initial residual = 8.46027e-06, Final residual = 8.46027e-06, No Iterations 0
DICPCG:  Solving for p, Initial residual = 1.30697e-06, Final residual = 8.03728e-07, No Iterations 1
time step continuity errors : sum local = 2.10099e-09, global = 6.34965e-20, cumulative = -6.12216e-18
DICPCG:  Solving for p, Initial residual = 1.05761e-06, Final residual = 9.61434e-07, No Iterations 1
time step continuity errors : sum local = 2.44673e-09, global = 4.02775e-19, cumulative = -5.71939e-18
ExecutionTime = 0.71 s  ClockTime = 1 s

Time = 0.265

Courant Number mean: 0.224806 max: 0.926447
smoothSolver:  Solving for Ux, Initial residual = 3.70384e-06, Final residual = 3.70384e-06, No Iterations 0
smoothSolver:  Solving for Uy, Initial residual = 8.31752e-06, Final residual = 8.31752e-06, No Iterations 0
DICPCG:  Solving for p, Initial residual = 1.13888e-06, Final residual = 8.8444e-07, No Iterations 1
time step continuity errors : sum local = 2.27472e-09, global = -5.11156e-19, cumulative = -6.23055e-18
DICPCG:  Solving for p, Initial residual = 1.11731e-06, Final residual = 9.11527e-07, No Iterations 1
time step continuity errors : sum local = 2.33223e-09, global = 1.85743e-19, cumulative = -6.0448e-18
ExecutionTime = 0.71 s  ClockTime = 1 s

Time = 0.2675

Courant Number mean: 0.224807 max: 0.926447
smoothSolver:  Solving for Ux, Initial residual = 3.65441e-06, Final residual = 3.65441e-06, No Iterations 0
smoothSolver:  Solving for Uy, Initial residual = 8.17227e-06, Final residual = 8.17227e-06, No Iterations 0
DICPCG:  Solving for p, Initial residual = 1.1096e-06, Final residual = 8.90831e-07, No Iterations 1
time step continuity errors : sum local = 2.28365e-09, global = 2.663e-20, cumulative = -6.01817e-18
DICPCG:  Solving for p, Initial residual = 1.11359e-06, Final residual = 8.59016e-07, No Iterations 1
time step continuity errors : sum local = 2.21171e-09, global = -7.99056e-20, cumulative = -6.09808e-18
ExecutionTime = 0.71 s  ClockTime = 1 s

Time = 0.27

Courant Number mean: 0.224807 max: 0.926447
smoothSolver:  Solving for Ux, Initial residual = 3.6029e-06, Final residual = 3.6029e-06, No Iterations 0
smoothSolver:  Solving for Uy, Initial residual = 8.0284e-06, Final residual = 8.0284e-06, No Iterations 0
DICPCG:  Solving for p, Initial residual = 1.07219e-06, Final residual = 8.95174e-07, No Iterations 1
time step continuity errors : sum local = 2.28988e-09, global = 4.31049e-19, cumulative = -5.66703e-18
DICPCG:  Solving for p, Initial residual = 1.11778e-06, Final residual = 8.87367e-07, No Iterations 1
time step continuity errors : sum local = 2.2725e-09, global = -6.52708e-19, cumulative = -6.31974e-18
ExecutionTime = 0.71 s  ClockTime = 1 s

Time = 0.2725

Courant Number mean: 0.224807 max: 0.926447
smoothSolver:  Solving for Ux, Initial residual = 3.5511e-06, Final residual = 3.5511e-06, No Iterations 0
smoothSolver:  Solving for Uy, Initial residual = 7.89529e-06, Final residual = 7.89529e-06, No Iterations 0
[...]
time step continuity errors : sum local = 2.16683e-09, global = -5.30859e-19, cumulative = 3.95576e-18
DICPCG:  Solving for p, Initial residual = 1.08316e-06, Final residual = 3.49621e-07, No Iterations 1
time step continuity errors : sum local = 1.18065e-09, global = -3.00608e-19, cumulative = 3.65515e-18
ExecutionTime = 1.03 s  ClockTime = 1 s

Time = 0.635

Courant Number mean: 0.224827 max: 0.926451
smoothSolver:  Solving for Ux, Initial residual = 3.83552e-07, Final residual = 3.83552e-07, No Iterations 0
smoothSolver:  Solving for Uy, Initial residual = 9.58659e-07, Final residual = 9.58659e-07, No Iterations 0
DICPCG:  Solving for p, Initial residual = 6.32811e-07, Final residual = 6.32811e-07, No Iterations 0
time step continuity errors : sum local = 1.80584e-09, global = 6.88359e-19, cumulative = 4.34351e-18
DICPCG:  Solving for p, Initial residual = 8.24039e-07, Final residual = 8.24039e-07, No Iterations 0
time step continuity errors : sum local = 2.228e-09, global = 3.31456e-19, cumulative = 4.67496e-18
ExecutionTime = 1.03 s  ClockTime = 1 s

Time = 0.6375

Courant Number mean: 0.224827 max: 0.926451
smoothSolver:  Solving for Ux, Initial residual = 3.78572e-07, Final residual = 3.78572e-07, No Iterations 0
smoothSolver:  Solving for Uy, Initial residual = 9.45635e-07, Final residual = 9.45635e-07, No Iterations 0
DICPCG:  Solving for p, Initial residual = 9.75934e-07, Final residual = 9.75934e-07, No Iterations 0
time step continuity errors : sum local = 2.56333e-09, global = -1.79912e-21, cumulative = 4.67316e-18
DICPCG:  Solving for p, Initial residual = 1.07098e-06, Final residual = 3.48328e-07, No Iterations 1
time step continuity errors : sum local = 1.17805e-09, global = 5.92484e-19, cumulative = 5.26565e-18
ExecutionTime = 1.03 s  ClockTime = 1 s

Time = 0.64

Courant Number mean: 0.224827 max: 0.926451
smoothSolver:  Solving for Ux, Initial residual = 3.72504e-07, Final residual = 3.72504e-07, No Iterations 0
smoothSolver:  Solving for Uy, Initial residual = 9.32437e-07, Final residual = 9.32437e-07, No Iterations 0
DICPCG:  Solving for p, Initial residual = 7.7584e-07, Final residual = 7.7584e-07, No Iterations 0
time step continuity errors : sum local = 2.12185e-09, global = 1.13241e-19, cumulative = 5.37889e-18
DICPCG:  Solving for p, Initial residual = 1.06254e-06, Final residual = 3.31213e-07, No Iterations 1
time step continuity errors : sum local = 1.14046e-09, global = -2.58882e-19, cumulative = 5.12001e-18
ExecutionTime = 1.03 s  ClockTime = 1 s

Time = 0.6425

Courant Number mean: 0.224827 max: 0.926451
smoothSolver:  Solving for Ux, Initial residual = 3.6654e-07, Final residual = 3.6654e-07, No Iterations 0
smoothSolver:  Solving for Uy, Initial residual = 9.16178e-07, Final residual = 9.16178e-07, No Iterations 0
DICPCG:  Solving for p, Initial residual = 6.04533e-07, Final residual = 6.04533e-07, No Iterations 0
time step continuity errors : sum local = 1.74386e-09, global = 3.35437e-19, cumulative = 5.45544e-18
DICPCG:  Solving for p, Initial residual = 7.9189e-07, Final residual = 7.9189e-07, No Iterations 0
time step continuity errors : sum local = 2.15748e-09, global = -2.04179e-19, cumulative = 5.25126e-18
ExecutionTime = 1.04 s  ClockTime = 1 s

Time = 0.645

Courant Number mean: 0.224827 max: 0.926451
smoothSolver:  Solving for Ux, Initial residual = 3.61792e-07, Final residual = 3.61792e-07, No Iterations 0
smoothSolver:  Solving for Uy, Initial residual = 9.03753e-07, Final residual = 9.03753e-07, No Iterations 0
DICPCG:  Solving for p, Initial residual = 9.40042e-07, Final residual = 9.40042e-07, No Iterations 0
time step continuity errors : sum local = 2.48455e-09, global = -1.39597e-19, cumulative = 5.11167e-18
DICPCG:  Solving for p, Initial residual = 1.03265e-06, Final residual = 3.27898e-07, No Iterations 1
time step continuity errors : sum local = 1.1334e-09, global = -6.93441e-19, cumulative = 4.41823e-18
ExecutionTime = 1.04 s  ClockTime = 1 s

Time = 0.6475

Courant Number mean: 0.224827 max: 0.926451
smoothSolver:  Solving for Ux, Initial residual = 3.56131e-07, Final residual = 3.56131e-07, No Iterations 0
smoothSolver:  Solving for Uy, Initial residual = 8.91466e-07, Final residual = 8.91466e-07, No Iterations 0
DICPCG:  Solving for p, Initial residual = 7.40232e-07, Final residual = 7.40232e-07, No Iterations 0
time step continuity errors : sum local = 2.0437e-09, global = 1.63384e-19, cumulative = 4.58161e-18
DICPCG:  Solving for p, Initial residual = 1.01897e-06, Final residual = 3.14494e-07, No Iterations 1
time step continuity errors : sum local = 1.10402e-09, global = 2.00224e-19, cumulative = 4.78183e-18
ExecutionTime = 1.04 s  ClockTime = 1 s

Time = 0.65

Courant Number mean: 0.224827 max: 0.926451
smoothSolver:  Solving for Ux, Initial residual = 3.50503e-07, Final residual = 3.50503e-07, No Iterations 0
smoothSolver:  Solving for Uy, Initial residual = 8.76132e-07, Final residual = 8.76132e-07, No Iterations 0
DICPCG:  Solving for p, Initial residual = 5.76712e-07, Final residual = 5.76712e-07, No Iterations 0
time step continuity errors : sum local = 1.6829e-09, global = -5.83591e-19, cumulative = 4.19824e-18
DICPCG:  Solving for p, Initial residual = 7.57319e-07, Final residual = 7.57319e-07, No Iterations 0
time step continuity errors : sum local = 2.08162e-09, global = -3.53211e-19, cumulative = 3.84503e-18
ExecutionTime = 1.04 s  ClockTime = 1 s

Time = 0.6525

Courant Number mean: 0.224827 max: 0.926451
smoothSolver:  Solving for Ux, Initial residual = 3.45979e-07, Final residual = 3.45979e-07, No Iterations 0
smoothSolver:  Solving for Uy, Initial residual = 8.64295e-07, Final residual = 8.64295e-07, No Iterations 0
DICPCG:  Solving for p, Initial residual = 9.00989e-07, Final residual = 9.00989e-07, No Iterations 0
time step continuity errors : sum local = 2.3988e-09, global = -8.36161e-19, cumulative = 3.00887e-18
DICPCG:  Solving for p, Initial residual = 9.91004e-07, Final residual = 9.91004e-07, No Iterations 0
time step continuity errors : sum local = 2.59752e-09, global = -4.35702e-19, cumulative = 2.57317e-18
ExecutionTime = 1.05 s  ClockTime = 1 s

Time = 0.655

Courant Number mean: 0.224827 max: 0.926451
smoothSolver:  Solving for Ux, Initial residual = 3.41833e-07, Final residual = 3.41833e-07, No Iterations 0
smoothSolver:  Solving for Uy, Initial residual = 8.53611e-07, Final residual = 8.53611e-07, No Iterations 0
DICPCG:  Solving for p, Initial residual = 1.06475e-06, Final residual = 3.31099e-07, No Iterations 1
time step continuity errors : sum local = 1.14094e-09, global = -2.23949e-19, cumulative = 2.34922e-18
DICPCG:  Solving for p, Initial residual = 7.30242e-07, Final residual = 7.30242e-07, No Iterations 0
time step continuity errors : sum local = 2.02211e-09, global = -6.60555e-20, cumulative = 2.28317e-18
ExecutionTime = 1.05 s  ClockTime = 1 s

Time = 0.6575

Courant Number mean: 0.224827 max: 0.926452
smoothSolver:  Solving for Ux, Initial residual = 3.35836e-07, Final residual = 3.35836e-07, No Iterations 0
smoothSolver:  Solving for Uy, Initial residual = 8.40075e-07, Final residual = 8.40075e-07, No Iterations 0
DICPCG:  Solving for p, Initial residual = 1.09727e-06, Final residual = 3.20332e-07, No Iterations 1
time step continuity errors : sum local = 1.11735e-09, global = 1.38713e-19, cumulative = 2.42188e-18
DICPCG:  Solving for p, Initial residual = 5.60066e-07, Final residual = 5.60066e-07, No Iterations 0
time step continuity errors : sum local = 1.6466e-09, global = 2.64982e-19, cumulative = 2.68686e-18
ExecutionTime = 1.05 s  ClockTime = 1 s

Time = 0.66

Courant Number mean: 0.224827 max: 0.926452
smoothSolver:  Solving for Ux, Initial residual = 3.30534e-07, Final residual = 3.30534e-07, No Iterations 0
smoothSolver:  Solving for Uy, Initial residual = 8.25993e-07, Final residual = 8.25993e-07, No Iterations 0
DICPCG:  Solving for p, Initial residual = 7.93083e-07, Final residual = 7.93083e-07, No Iterations 0
time step continuity errors : sum local = 2.16102e-09, global = 2.22145e-19, cumulative = 2.909e-18
DICPCG:  Solving for p, Initial residual = 9.31896e-07, Final residual = 9.31896e-07, No Iterations 0
time step continuity errors : sum local = 2.46747e-09, global = -7.0041e-19, cumulative = 2.20859e-18
ExecutionTime = 1.05 s  ClockTime = 1 s

Time = 0.6625

Courant Number mean: 0.224827 max: 0.926452
smoothSolver:  Solving for Ux, Initial residual = 3.2644e-07, Final residual = 3.2644e-07, No Iterations 0
smoothSolver:  Solving for Uy, Initial residual = 8.15368e-07, Final residual = 8.15368e-07, No Iterations 0
DICPCG:  Solving for p, Initial residual = 1.04248e-06, Final residual = 3.27448e-07, No Iterations 1
time step continuity errors : sum local = 1.13328e-09, global = 8.93148e-20, cumulative = 2.29791e-18
DICPCG:  Solving for p, Initial residual = 6.96083e-07, Final residual = 6.96083e-07, No Iterations 0
time step continuity errors : sum local = 1.9471e-09, global = 2.4118e-19, cumulative = 2.53909e-18
ExecutionTime = 1.05 s  ClockTime = 1 s

Time = 0.665

Courant Number mean: 0.224827 max: 0.926452
smoothSolver:  Solving for Ux, Initial residual = 3.20888e-07, Final residual = 3.20888e-07, No Iterations 0
smoothSolver:  Solving for Uy, Initial residual = 8.02789e-07, Final residual = 8.02789e-07, No Iterations 0
DICPCG:  Solving for p, Initial residual = 1.03831e-06, Final residual = 3.12676e-07, No Iterations 1
time step continuity errors : sum local = 1.10082e-09, global = 5.40873e-20, cumulative = 2.59318e-18
DICPCG:  Solving for p, Initial residual = 5.44252e-07, Final residual = 5.44252e-07, No Iterations 0
time step continuity errors : sum local = 1.61206e-09, global = -8.50709e-19, cumulative = 1.74247e-18
ExecutionTime = 1.05 s  ClockTime = 1 s

Time = 0.6675

Courant Number mean: 0.224827 max: 0.926452
smoothSolver:  Solving for Ux, Initial residual = 3.15777e-07, Final residual = 3.15777e-07, No Iterations 0
smoothSolver:  Solving for Uy, Initial residual = 7.89347e-07, Final residual = 7.89347e-07, No Iterations 0
DICPCG:  Solving for p, Initial residual = 7.6948e-07, Final residual = 7.6948e-07, No Iterations 0
time step continuity errors : sum local = 2.10928e-09, global = -4.12499e-19, cumulative = 1.32997e-18
DICPCG:  Solving for p, Initial residual = 9.04197e-07, Final residual = 9.04197e-07, No Iterations 0
time step continuity errors : sum local = 2.40669e-09, global = 1.82238e-20, cumulative = 1.34819e-18
ExecutionTime = 1.05 s  ClockTime = 1 s

Time = 0.67

Courant Number mean: 0.224828 max: 0.926452
smoothSolver:  Solving for Ux, Initial residual = 3.11864e-07, Final residual = 3.11864e-07, No Iterations 0
smoothSolver:  Solving for Uy, Initial residual = 7.79188e-07, Final residual = 7.79188e-07, No Iterations 0
DICPCG:  Solving for p, Initial residual = 1.01144e-06, Final residual = 3.05644e-07, No Iterations 1
time step continuity errors : sum local = 1.08547e-09, global = -3.18625e-19, cumulative = 1.02957e-18
DICPCG:  Solving for p, Initial residual = 6.61609e-07, Final residual = 6.61609e-07, No Iterations 0
time step continuity errors : sum local = 1.87133e-09, global = -2.79789e-19, cumulative = 7.49779e-19
ExecutionTime = 1.06 s  ClockTime = 1 s

Time = 0.6725

Courant Number mean: 0.224828 max: 0.926452
smoothSolver:  Solving for Ux, Initial residual = 3.06563e-07, Final residual = 3.06563e-07, No Iterations 0
smoothSolver:  Solving for Uy, Initial residual = 7.67152e-07, Final residual = 7.67152e-07, No Iterations 0
DICPCG:  Solving for p, Initial residual = 9.94657e-07, Final residual = 9.94657e-07, No Iterations 0
time step continuity errors : sum local = 2.60658e-09, global = -1.52103e-19, cumulative = 5.97676e-19
DICPCG:  Solving for p, Initial residual = 1.19077e-06, Final residual = 2.88777e-07, No Iterations 1
time step continuity errors : sum local = 1.04835e-09, global = -8.66973e-19, cumulative = -2.69297e-19
ExecutionTime = 1.06 s  ClockTime = 1 s

Time = 0.675

Courant Number mean: 0.224828 max: 0.926452
smoothSolver:  Solving for Ux, Initial residual = 3.02195e-07, Final residual = 3.02195e-07, No Iterations 0
smoothSolver:  Solving for Uy, Initial residual = 7.56187e-07, Final residual = 7.56187e-07, No Iterations 0
DICPCG:  Solving for p, Initial residual = 6.89459e-07, Final residual = 6.89459e-07, No Iterations 0
time step continuity errors : sum local = 1.93292e-09, global = -3.33147e-19, cumulative = -6.02444e-19
DICPCG:  Solving for p, Initial residual = 9.70325e-07, Final residual = 9.70325e-07, No Iterations 0
time step continuity errors : sum local = 2.55297e-09, global = -1.87961e-19, cumulative = -7.90405e-19
ExecutionTime = 1.06 s  ClockTime = 1 s

Time = 0.6775

Courant Number mean: 0.224828 max: 0.926452
smoothSolver:  Solving for Ux, Initial residual = 2.98008e-07, Final residual = 2.98008e-07, No Iterations 0
smoothSolver:  Solving for Uy, Initial residual = 7.44956e-07, Final residual = 7.44956e-07, No Iterations 0
DICPCG:  Solving for p, Initial residual = 1.1902e-06, Final residual = 2.8139e-07, No Iterations 1
time step continuity errors : sum local = 1.03215e-09, global = 3.75126e-19, cumulative = -4.15279e-19
DICPCG:  Solving for p, Initial residual = 6.37529e-07, Final residual = 6.37529e-07, No Iterations 0
time step continuity errors : sum local = 1.81839e-09, global = 2.37737e-19, cumulative = -1.77542e-19
ExecutionTime = 1.06 s  ClockTime = 1 s

Time = 0.68

Courant Number mean: 0.224828 max: 0.926452
smoothSolver:  Solving for Ux, Initial residual = 2.93072e-07, Final residual = 2.93072e-07, No Iterations 0
smoothSolver:  Solving for Uy, Initial residual = 7.33657e-07, Final residual = 7.33657e-07, No Iterations 0
DICPCG:  Solving for p, Initial residual = 9.81209e-07, Final residual = 9.81209e-07, No Iterations 0
time step continuity errors : sum local = 2.57711e-09, global = -3.99146e-19, cumulative = -5.76688e-19
DICPCG:  Solving for p, Initial residual = 1.18377e-06, Final residual = 2.72496e-07, No Iterations 1
time step continuity errors : sum local = 1.01258e-09, global = 4.81833e-20, cumulative = -5.28505e-19
ExecutionTime = 1.07 s  ClockTime = 1 s

Time = 0.6825

Courant Number mean: 0.224828 max: 0.926452
smoothSolver:  Solving for Ux, Initial residual = 2.88818e-07, Final residual = 2.88818e-07, No Iterations 0
smoothSolver:  Solving for Uy, Initial residual = 7.2296e-07, Final residual = 7.2296e-07, No Iterations 0
DICPCG:  Solving for p, Initial residual = 6.68356e-07, Final residual = 6.68356e-07, No Iterations 0
time step continuity errors : sum local = 1.8865e-09, global = 2.82043e-19, cumulative = -2.46462e-19
DICPCG:  Solving for p, Initial residual = 9.47758e-07, Final residual = 9.47758e-07, No Iterations 0
time step continuity errors : sum local = 2.50333e-09, global = 3.94177e-19, cumulative = 1.47716e-19
ExecutionTime = 1.07 s  ClockTime = 1 s

Time = 0.685

Courant Number mean: 0.224828 max: 0.926452
smoothSolver:  Solving for Ux, Initial residual = 2.84804e-07, Final residual = 2.84804e-07, No Iterations 0
smoothSolver:  Solving for Uy, Initial residual = 7.12168e-07, Final residual = 7.12168e-07, No Iterations 0
DICPCG:  Solving for p, Initial residual = 1.16632e-06, Final residual = 2.65961e-07, No Iterations 1
time step continuity errors : sum local = 9.98206e-10, global = 1.78154e-20, cumulative = 1.65531e-19
DICPCG:  Solving for p, Initial residual = 6.14416e-07, Final residual = 6.14416e-07, No Iterations 0
time step continuity errors : sum local = 1.76746e-09, global = 3.82173e-19, cumulative = 5.47704e-19
ExecutionTime = 1.07 s  ClockTime = 1 s

Time = 0.6875

Courant Number mean: 0.224828 max: 0.926452
smoothSolver:  Solving for Ux, Initial residual = 2.80197e-07, Final residual = 2.80197e-07, No Iterations 0
smoothSolver:  Solving for Uy, Initial residual = 7.01617e-07, Final residual = 7.01617e-07, No Iterations 0
DICPCG:  Solving for p, Initial residual = 9.51435e-07, Final residual = 9.51435e-07, No Iterations 0
time step continuity errors : sum local = 2.51149e-09, global = -5.71484e-19, cumulative = -2.37796e-20
DICPCG:  Solving for p, Initial residual = 1.15086e-06, Final residual = 2.58779e-07, No Iterations 1
time step continuity errors : sum local = 9.82348e-10, global = 8.70091e-21, cumulative = -1.50787e-20
ExecutionTime = 1.07 s  ClockTime = 1 s

Time = 0.69

Courant Number mean: 0.224828 max: 0.926452
smoothSolver:  Solving for Ux, Initial residual = 2.76112e-07, Final residual = 2.76112e-07, No Iterations 0
smoothSolver:  Solving for Uy, Initial residual = 6.91329e-07, Final residual = 6.91329e-07, No Iterations 0
DICPCG:  Solving for p, Initial residual = 6.46042e-07, Final residual = 6.46042e-07, No Iterations 0
time step continuity errors : sum local = 1.83729e-09, global = 5.75847e-19, cumulative = 5.60768e-19
DICPCG:  Solving for p, Initial residual = 9.20567e-07, Final residual = 9.20567e-07, No Iterations 0
time step continuity errors : sum local = 2.44335e-09, global = -5.60932e-20, cumulative = 5.04675e-19
ExecutionTime = 1.07 s  ClockTime = 1 s

Time = 0.6925

Courant Number mean: 0.224828 max: 0.926452
smoothSolver:  Solving for Ux, Initial residual = 2.72266e-07, Final residual = 2.72266e-07, No Iterations 0
smoothSolver:  Solving for Uy, Initial residual = 6.81015e-07, Final residual = 6.81015e-07, No Iterations 0
DICPCG:  Solving for p, Initial residual = 1.13483e-06, Final residual = 2.55122e-07, No Iterations 1
time step continuity errors : sum local = 9.74263e-10, global = 4.1206e-19, cumulative = 9.16735e-19
DICPCG:  Solving for p, Initial residual = 5.94433e-07, Final residual = 5.94433e-07, No Iterations 0
time step continuity errors : sum local = 1.72332e-09, global = -5.71758e-19, cumulative = 3.44977e-19
ExecutionTime = 1.07 s  ClockTime = 1 s

Time = 0.695

Courant Number mean: 0.224828 max: 0.926452
smoothSolver:  Solving for Ux, Initial residual = 2.67899e-07, Final residual = 2.67899e-07, No Iterations 0
smoothSolver:  Solving for Uy, Initial residual = 6.70981e-07, Final residual = 6.70981e-07, No Iterations 0
DICPCG:  Solving for p, Initial residual = 9.23754e-07, Final residual = 9.23754e-07, No Iterations 0
time step continuity errors : sum local = 2.45033e-09, global = -3.24405e-19, cumulative = 2.05727e-20
DICPCG:  Solving for p, Initial residual = 1.12066e-06, Final residual = 2.503e-07, No Iterations 1
time step continuity errors : sum local = 9.63553e-10, global = -2.55738e-19, cumulative = -2.35166e-19
ExecutionTime = 1.07 s  ClockTime = 1 s

Time = 0.6975

Courant Number mean: 0.224828 max: 0.926452
smoothSolver:  Solving for Ux, Initial residual = 2.63978e-07, Final residual = 2.63978e-07, No Iterations 0
smoothSolver:  Solving for Uy, Initial residual = 6.61088e-07, Final residual = 6.61088e-07, No Iterations 0
DICPCG:  Solving for p, Initial residual = 6.29281e-07, Final residual = 6.29281e-07, No Iterations 0
time step continuity errors : sum local = 1.80021e-09, global = 3.62186e-19, cumulative = 1.27021e-19
DICPCG:  Solving for p, Initial residual = 8.98783e-07, Final residual = 8.98783e-07, No Iterations 0
time step continuity errors : sum local = 2.39516e-09, global = 6.50371e-20, cumulative = 1.92058e-19
ExecutionTime = 1.08 s  ClockTime = 1 s

Time = 0.7

Courant Number mean: 0.224828 max: 0.926452
smoothSolver:  Solving for Ux, Initial residual = 2.60288e-07, Final residual = 2.60288e-07, No Iterations 0
smoothSolver:  Solving for Uy, Initial residual = 6.51214e-07, Final residual = 6.51214e-07, No Iterations 0
DICPCG:  Solving for p, Initial residual = 1.10902e-06, Final residual = 2.4891e-07, No Iterations 1
time step continuity errors : sum local = 9.60414e-10, global = 6.68719e-19, cumulative = 8.60776e-19
DICPCG:  Solving for p, Initial residual = 5.8056e-07, Final residual = 5.8056e-07, No Iterations 0
time step continuity errors : sum local = 1.69254e-09, global = -3.34227e-19, cumulative = 5.26549e-19
ExecutionTime = 1.09 s  ClockTime = 1 s

End

