/*---------------------------------------------------------------------------*\
| =========                 |                                                 |
| \\      /  F ield         | OpenFOAM: The Open Source CFD Toolbox           |
|  \\    /   O peration     | Version:  2.4.0                                 |
|   \\  /    A nd           | Web:      www.OpenFOAM.org                      |
|    \\/     M anipulation  |                                                 |
\*---------------------------------------------------------------------------*/
Build  : 2.4.0-f0842aea0e77
Exec   : icoFoam
Date   : Sep 30 2015
Time   : 08:29:42
Host   : "ubuntu"
PID    : 12466
Case   : /home/johnathoncobabe/OpenFOAM/johnathoncobabe-2.4.0/run/selfcheck/incompressible/icoFoam/cavity
nProcs : 1
sigFpe : Enabling floating point exception trapping (FOAM_SIGFPE).
fileModificationChecking : Monitoring run-time modified files using timeStampMaster
allowSystemOperations : Allowing user-supplied system call operations

// * * * * * * * * * * * * * * * * * * * * * * * * * * * * * * * * * * * * * //
Create time

Create mesh for time = 0

Reading transportProperties

Reading field p

Reading field U

Reading/calculating face flux field phi


Starting time loop

Time = 0.005

Courant Number mean: 0 max: 0
smoothSolver:  Solving for Ux, Initial residual = 1, Final residual = 8.86019e-06, No Iterations 64
smoothSolver:  Solving for Uy, Initial residual = 0, Final residual = 0, No Iterations 0
DICPCG:  Solving for p, Initial residual = 1, Final residual = 7.40125e-07, No Iterations 70
time step continuity errors : sum local = 5.15886e-09, global = 2.54772e-20, cumulative = 2.54772e-20
DICPCG:  Solving for p, Initial residual = 0.653678, Final residual = 6.39833e-07, No Iterations 69
time step continuity errors : sum local = 6.53968e-09, global = -3.06253e-19, cumulative = -2.80776e-19
ExecutionTime = 0.03 s  ClockTime = 0 s

Time = 0.01

Courant Number mean: 0.204479 max: 1.4998
smoothSolver:  Solving for Ux, Initial residual = 0.126114, Final residual = 9.44846e-06, No Iterations 64
smoothSolver:  Solving for Uy, Initial residual = 0.340186, Final residual = 9.72704e-06, No Iterations 66
DICPCG:  Solving for p, Initial residual = 0.665086, Final residual = 8.38402e-07, No Iterations 67
time step continuity errors : sum local = 8.1679e-09, global = 5.85233e-19, cumulative = 3.04457e-19
DICPCG:  Solving for p, Initial residual = 0.562212, Final residual = 8.15288e-07, No Iterations 66
time step continuity errors : sum local = 8.65408e-09, global = -2.75396e-19, cumulative = 2.90612e-20
ExecutionTime = 0.05 s  ClockTime = 0 s

Time = 0.015

Courant Number mean: 0.305827 max: 1.82094
smoothSolver:  Solving for Ux, Initial residual = 0.0461066, Final residual = 8.7791e-06, No Iterations 51
smoothSolver:  Solving for Uy, Initial residual = 0.118623, Final residual = 9.97887e-06, No Iterations 47
DICPCG:  Solving for p, Initial residual = 0.57944, Final residual = 8.22863e-07, No Iterations 67
time step continuity errors : sum local = 5.48071e-09, global = -3.2533e-19, cumulative = -2.96269e-19
DICPCG:  Solving for p, Initial residual = 0.535787, Final residual = 6.66042e-07, No Iterations 67
time step continuity errors : sum local = 4.38235e-09, global = -5.13173e-19, cumulative = -8.09441e-19
ExecutionTime = 0.06 s  ClockTime = 0 s

Time = 0.02

Courant Number mean: 0.341577 max: 1.78737
smoothSolver:  Solving for Ux, Initial residual = 0.0197321, Final residual = 9.94239e-06, No Iterations 49
smoothSolver:  Solving for Uy, Initial residual = 0.083047, Final residual = 8.94539e-06, No Iterations 58
DICPCG:  Solving for p, Initial residual = 0.332177, Final residual = 7.44082e-07, No Iterations 65
time step continuity errors : sum local = 4.37899e-09, global = 3.88821e-19, cumulative = -4.2062e-19
DICPCG:  Solving for p, Initial residual = 0.296736, Final residual = 6.37158e-07, No Iterations 65
time step continuity errors : sum local = 3.7936e-09, global = -4.2879e-19, cumulative = -8.4941e-19
ExecutionTime = 0.08 s  ClockTime = 0 s

Time = 0.025

Courant Number mean: 0.372357 max: 1.83069
smoothSolver:  Solving for Ux, Initial residual = 0.0142476, Final residual = 9.77375e-06, No Iterations 45
smoothSolver:  Solving for Uy, Initial residual = 0.0322165, Final residual = 9.51181e-06, No Iterations 50
DICPCG:  Solving for p, Initial residual = 0.221874, Final residual = 8.52492e-07, No Iterations 65
time step continuity errors : sum local = 4.20516e-09, global = -3.17823e-19, cumulative = -1.16723e-18
DICPCG:  Solving for p, Initial residual = 0.198794, Final residual = 7.37614e-07, No Iterations 65
time step continuity errors : sum local = 3.64834e-09, global = -4.61096e-19, cumulative = -1.62833e-18
ExecutionTime = 0.09 s  ClockTime = 0 s

Time = 0.03

Courant Number mean: 0.39065 max: 1.82907
smoothSolver:  Solving for Ux, Initial residual = 0.00698644, Final residual = 9.02704e-06, No Iterations 42
smoothSolver:  Solving for Uy, Initial residual = 0.0266873, Final residual = 8.80145e-06, No Iterations 52
DICPCG:  Solving for p, Initial residual = 0.114174, Final residual = 7.90465e-07, No Iterations 64
time step continuity errors : sum local = 3.72274e-09, global = 9.08198e-19, cumulative = -7.20132e-19
DICPCG:  Solving for p, Initial residual = 0.10115, Final residual = 8.87753e-07, No Iterations 63
time step continuity errors : sum local = 4.19834e-09, global = 5.5266e-20, cumulative = -6.64866e-19
ExecutionTime = 0.1 s  ClockTime = 0 s

Time = 0.035

Courant Number mean: 0.405002 max: 1.83989
smoothSolver:  Solving for Ux, Initial residual = 0.00557819, Final residual = 9.24904e-06, No Iterations 41
smoothSolver:  Solving for Uy, Initial residual = 0.0142017, Final residual = 9.05978e-06, No Iterations 48
DICPCG:  Solving for p, Initial residual = 0.0690462, Final residual = 7.74814e-07, No Iterations 63
time step continuity errors : sum local = 3.58546e-09, global = -3.15197e-19, cumulative = -9.80063e-19
DICPCG:  Solving for p, Initial residual = 0.0616712, Final residual = 6.41044e-07, No Iterations 63
time step continuity errors : sum local = 2.96835e-09, global = -1.96486e-19, cumulative = -1.17655e-18
ExecutionTime = 0.12 s  ClockTime = 0 s

Time = 0.04

Courant Number mean: 0.415154 max: 1.8418
smoothSolver:  Solving for Ux, Initial residual = 0.0033836, Final residual = 9.81886e-06, No Iterations 38
smoothSolver:  Solving for Uy, Initial residual = 0.0116218, Final residual = 9.46143e-06, No Iterations 47
DICPCG:  Solving for p, Initial residual = 0.0348595, Final residual = 8.07679e-07, No Iterations 62
time step continuity errors : sum local = 3.67903e-09, global = 8.27181e-20, cumulative = -1.09383e-18
DICPCG:  Solving for p, Initial residual = 0.0308844, Final residual = 6.8411e-07, No Iterations 62
time step continuity errors : sum local = 3.11943e-09, global = 3.54943e-19, cumulative = -7.38888e-19
ExecutionTime = 0.13 s  ClockTime = 0 s

Time = 0.045

Courant Number mean: 0.423034 max: 1.84553
smoothSolver:  Solving for Ux, Initial residual = 0.00269421, Final residual = 9.5808e-06, No Iterations 37
smoothSolver:  Solving for Uy, Initial residual = 0.00772872, Final residual = 8.92726e-06, No Iterations 45
DICPCG:  Solving for p, Initial residual = 0.0235339, Final residual = 8.66138e-07, No Iterations 58
time step continuity errors : sum local = 3.92908e-09, global = -7.3587e-19, cumulative = -1.47476e-18
DICPCG:  Solving for p, Initial residual = 0.0212166, Final residual = 9.86873e-07, No Iterations 57
time step continuity errors : sum local = 4.47246e-09, global = 1.31625e-20, cumulative = -1.4616e-18
ExecutionTime = 0.15 s  ClockTime = 0 s

Time = 0.05

Courant Number mean: 0.428936 max: 1.84706
smoothSolver:  Solving for Ux, Initial residual = 0.00188887, Final residual = 9.57906e-06, No Iterations 35
smoothSolver:  Solving for Uy, Initial residual = 0.00616865, Final residual = 9.85079e-06, No Iterations 43
DICPCG:  Solving for p, Initial residual = 0.0130896, Final residual = 9.78069e-07, No Iterations 59
time step continuity errors : sum local = 4.42241e-09, global = -7.76454e-19, cumulative = -2.23805e-18
DICPCG:  Solving for p, Initial residual = 0.0118683, Final residual = 8.70529e-07, No Iterations 59
time step continuity errors : sum local = 3.93133e-09, global = -5.73205e-19, cumulative = -2.81125e-18
ExecutionTime = 0.16 s  ClockTime = 0 s

Time = 0.055

Courant Number mean: 0.433499 max: 1.84868
smoothSolver:  Solving for Ux, Initial residual = 0.0014883, Final residual = 8.98959e-06, No Iterations 34
smoothSolver:  Solving for Uy, Initial residual = 0.00457529, Final residual = 8.64914e-06, No Iterations 42
DICPCG:  Solving for p, Initial residual = 0.0102201, Final residual = 6.09053e-07, No Iterations 58
time step continuity errors : sum local = 2.74883e-09, global = 2.736e-19, cumulative = -2.53765e-18
DICPCG:  Solving for p, Initial residual = 0.00936517, Final residual = 5.75169e-07, No Iterations 58
time step continuity errors : sum local = 2.59428e-09, global = -4.80096e-19, cumulative = -3.01775e-18
ExecutionTime = 0.17 s  ClockTime = 0 s

Time = 0.06

Courant Number mean: 0.437005 max: 1.84962
smoothSolver:  Solving for Ux, Initial residual = 0.00112282, Final residual = 9.35087e-06, No Iterations 32
smoothSolver:  Solving for Uy, Initial residual = 0.00360897, Final residual = 9.29541e-06, No Iterations 40
DICPCG:  Solving for p, Initial residual = 0.00672063, Final residual = 6.26783e-07, No Iterations 58
time step continuity errors : sum local = 2.84058e-09, global = -7.51287e-19, cumulative = -3.76904e-18
DICPCG:  Solving for p, Initial residual = 0.00620745, Final residual = 9.72149e-07, No Iterations 57
time step continuity errors : sum local = 4.40353e-09, global = -2.26544e-20, cumulative = -3.79169e-18
ExecutionTime = 0.18 s  ClockTime = 0 s

Time = 0.065

Courant Number mean: 0.439727 max: 1.85044
smoothSolver:  Solving for Ux, Initial residual = 0.000883955, Final residual = 8.65554e-06, No Iterations 31
smoothSolver:  Solving for Uy, Initial residual = 0.00279729, Final residual = 9.75834e-06, No Iterations 38
DICPCG:  Solving for p, Initial residual = 0.00549099, Final residual = 9.82097e-07, No Iterations 57
time step continuity errors : sum local = 4.43079e-09, global = 8.21339e-19, cumulative = -2.97035e-18
DICPCG:  Solving for p, Initial residual = 0.00508101, Final residual = 8.33717e-07, No Iterations 57
time step continuity errors : sum local = 3.76132e-09, global = -1.42619e-18, cumulative = -4.39655e-18
ExecutionTime = 0.19 s  ClockTime = 0 s

Time = 0.07

Courant Number mean: 0.441845 max: 1.85099
smoothSolver:  Solving for Ux, Initial residual = 0.00068757, Final residual = 9.15185e-06, No Iterations 29
smoothSolver:  Solving for Uy, Initial residual = 0.00220613, Final residual = 8.97677e-06, No Iterations 37
DICPCG:  Solving for p, Initial residual = 0.00400737, Final residual = 7.48072e-07, No Iterations 55
time step continuity errors : sum local = 3.40225e-09, global = 7.01987e-19, cumulative = -3.69456e-18
DICPCG:  Solving for p, Initial residual = 0.00371581, Final residual = 9.51567e-07, No Iterations 54
time step continuity errors : sum local = 4.32533e-09, global = 4.92938e-19, cumulative = -3.20162e-18
ExecutionTime = 0.19 s  ClockTime = 0 s

Time = 0.075

Courant Number mean: 0.4435 max: 1.85144
smoothSolver:  Solving for Ux, Initial residual = 0.000542849, Final residual = 9.80467e-06, No Iterations 27
smoothSolver:  Solving for Uy, Initial residual = 0.0017346, Final residual = 9.52692e-06, No Iterations 35
DICPCG:  Solving for p, Initial residual = 0.00320192, Final residual = 5.82537e-07, No Iterations 57
time step continuity errors : sum local = 2.62708e-09, global = -2.80983e-19, cumulative = -3.4826e-18
DICPCG:  Solving for p, Initial residual = 0.00296684, Final residual = 4.88049e-07, No Iterations 57
time step continuity errors : sum local = 2.2013e-09, global = -8.12188e-19, cumulative = -4.29479e-18
ExecutionTime = 0.21 s  ClockTime = 0 s

Time = 0.08

Courant Number mean: 0.444796 max: 1.85177
smoothSolver:  Solving for Ux, Initial residual = 0.000427568, Final residual = 9.00243e-06, No Iterations 26
smoothSolver:  Solving for Uy, Initial residual = 0.00137135, Final residual = 8.76223e-06, No Iterations 34
DICPCG:  Solving for p, Initial residual = 0.00244516, Final residual = 8.30291e-07, No Iterations 54
time step continuity errors : sum local = 3.77104e-09, global = 8.38927e-19, cumulative = -3.45587e-18
DICPCG:  Solving for p, Initial residual = 0.0022677, Final residual = 7.39475e-07, No Iterations 54
time step continuity errors : sum local = 3.35859e-09, global = -4.67791e-19, cumulative = -3.92366e-18
ExecutionTime = 0.21 s  ClockTime = 0 s

Time = 0.085

Courant Number mean: 0.445813 max: 1.85202
smoothSolver:  Solving for Ux, Initial residual = 0.000338653, Final residual = 9.64126e-06, No Iterations 24
smoothSolver:  Solving for Uy, Initial residual = 0.00108516, Final residual = 9.35251e-06, No Iterations 32
DICPCG:  Solving for p, Initial residual = 0.00192536, Final residual = 8.4583e-07, No Iterations 54
time step continuity errors : sum local = 3.82883e-09, global = -1.25762e-19, cumulative = -4.04942e-18
DICPCG:  Solving for p, Initial residual = 0.00178441, Final residual = 9.67224e-07, No Iterations 53
time step continuity errors : sum local = 4.38551e-09, global = -5.13648e-19, cumulative = -4.56307e-18
ExecutionTime = 0.22 s  ClockTime = 0 s

Time = 0.09

Courant Number mean: 0.446612 max: 1.85221
smoothSolver:  Solving for Ux, Initial residual = 0.000268627, Final residual = 8.89953e-06, No Iterations 23
smoothSolver:  Solving for Uy, Initial residual = 0.000860325, Final residual = 8.61225e-06, No Iterations 31
DICPCG:  Solving for p, Initial residual = 0.00149989, Final residual = 7.29875e-07, No Iterations 53
time step continuity errors : sum local = 3.31673e-09, global = -1.07056e-18, cumulative = -5.63363e-18
DICPCG:  Solving for p, Initial residual = 0.00138999, Final residual = 6.71316e-07, No Iterations 53
time step continuity errors : sum local = 3.04992e-09, global = -5.13328e-19, cumulative = -6.14695e-18
ExecutionTime = 0.23 s  ClockTime = 0 s

Time = 0.095

Courant Number mean: 0.447242 max: 1.85236
smoothSolver:  Solving for Ux, Initial residual = 0.000213532, Final residual = 9.54446e-06, No Iterations 21
smoothSolver:  Solving for Uy, Initial residual = 0.000683258, Final residual = 9.22305e-06, No Iterations 29
DICPCG:  Solving for p, Initial residual = 0.0011718, Final residual = 6.04016e-07, No Iterations 53
time step continuity errors : sum local = 2.74369e-09, global = -2.23049e-19, cumulative = -6.37e-18
DICPCG:  Solving for p, Initial residual = 0.00108541, Final residual = 9.57984e-07, No Iterations 52
time step continuity errors : sum local = 4.34914e-09, global = 2.20961e-20, cumulative = -6.34791e-18
ExecutionTime = 0.24 s  ClockTime = 0 s

Time = 0.1

Courant Number mean: 0.447738 max: 1.85248
smoothSolver:  Solving for Ux, Initial residual = 0.000170367, Final residual = 8.85173e-06, No Iterations 20
smoothSolver:  Solving for Uy, Initial residual = 0.000543398, Final residual = 9.88074e-06, No Iterations 27
DICPCG:  Solving for p, Initial residual = 0.000918487, Final residual = 8.44367e-07, No Iterations 52
time step continuity errors : sum local = 3.83363e-09, global = 1.48907e-18, cumulative = -4.85884e-18
DICPCG:  Solving for p, Initial residual = 0.000850235, Final residual = 7.40266e-07, No Iterations 52
time step continuity errors : sum local = 3.36221e-09, global = 1.29247e-21, cumulative = -4.85754e-18
ExecutionTime = 0.25 s  ClockTime = 0 s

Time = 0.105

Courant Number mean: 0.448129 max: 1.85257
smoothSolver:  Solving for Ux, Initial residual = 0.000135912, Final residual = 9.51901e-06, No Iterations 18
smoothSolver:  Solving for Uy, Initial residual = 0.000433369, Final residual = 9.15126e-06, No Iterations 26
DICPCG:  Solving for p, Initial residual = 0.000721615, Final residual = 6.67441e-07, No Iterations 52
time step continuity errors : sum local = 3.03153e-09, global = -5.57489e-19, cumulative = -5.41503e-18
DICPCG:  Solving for p, Initial residual = 0.000668635, Final residual = 5.8786e-07, No Iterations 52
time step continuity errors : sum local = 2.67094e-09, global = 1.4504e-18, cumulative = -3.96463e-18
ExecutionTime = 0.25 s  ClockTime = 0 s

Time = 0.11

Courant Number mean: 0.448438 max: 1.85264
smoothSolver:  Solving for Ux, Initial residual = 0.000109288, Final residual = 8.89124e-06, No Iterations 17
smoothSolver:  Solving for Uy, Initial residual = 0.000345735, Final residual = 9.81496e-06, No Iterations 24
DICPCG:  Solving for p, Initial residual = 0.000566423, Final residual = 5.29821e-07, No Iterations 52
time step continuity errors : sum local = 2.40675e-09, global = -2.78346e-20, cumulative = -3.99247e-18
DICPCG:  Solving for p, Initial residual = 0.000524461, Final residual = 8.60047e-07, No Iterations 51
time step continuity errors : sum local = 3.90006e-09, global = 1.01093e-18, cumulative = -2.98154e-18
ExecutionTime = 0.26 s  ClockTime = 0 s

Time = 0.115

Courant Number mean: 0.448682 max: 1.85269
smoothSolver:  Solving for Ux, Initial residual = 8.76059e-05, Final residual = 9.59919e-06, No Iterations 15
smoothSolver:  Solving for Uy, Initial residual = 0.000277114, Final residual = 9.13752e-06, No Iterations 23
DICPCG:  Solving for p, Initial residual = 0.000456814, Final residual = 7.69468e-07, No Iterations 51
time step continuity errors : sum local = 3.49322e-09, global = -3.582e-19, cumulative = -3.33974e-18
DICPCG:  Solving for p, Initial residual = 0.000425593, Final residual = 6.62178e-07, No Iterations 51
time step continuity errors : sum local = 3.00664e-09, global = -4.61391e-19, cumulative = -3.80113e-18
ExecutionTime = 0.27 s  ClockTime = 0 s

Time = 0.12

Courant Number mean: 0.448874 max: 1.85274
smoothSolver:  Solving for Ux, Initial residual = 7.11929e-05, Final residual = 9.05169e-06, No Iterations 14
smoothSolver:  Solving for Uy, Initial residual = 0.000222109, Final residual = 9.82324e-06, No Iterations 21
DICPCG:  Solving for p, Initial residual = 0.000359952, Final residual = 7.93265e-07, No Iterations 29
time step continuity errors : sum local = 3.62012e-09, global = -7.44442e-19, cumulative = -4.54557e-18
DICPCG:  Solving for p, Initial residual = 0.00033528, Final residual = 7.59473e-07, No Iterations 29
time step continuity errors : sum local = 4.03274e-09, global = 4.44837e-19, cumulative = -4.10074e-18
ExecutionTime = 0.27 s  ClockTime = 0 s

Time = 0.125

Courant Number mean: 0.449027 max: 1.85277
smoothSolver:  Solving for Ux, Initial residual = 5.76196e-05, Final residual = 9.8554e-06, No Iterations 12
smoothSolver:  Solving for Uy, Initial residual = 0.000178931, Final residual = 9.19718e-06, No Iterations 20
DICPCG:  Solving for p, Initial residual = 0.000312467, Final residual = 8.73582e-07, No Iterations 50
time step continuity errors : sum local = 3.95616e-09, global = 6.23146e-19, cumulative = -3.47759e-18
DICPCG:  Solving for p, Initial residual = 0.000294267, Final residual = 7.66688e-07, No Iterations 50
time step continuity errors : sum local = 3.47131e-09, global = -3.95382e-19, cumulative = -3.87297e-18
ExecutionTime = 0.28 s  ClockTime = 0 s

Time = 0.13

Courant Number mean: 0.449146 max: 1.8528
smoothSolver:  Solving for Ux, Initial residual = 4.74224e-05, Final residual = 9.40366e-06, No Iterations 11
smoothSolver:  Solving for Uy, Initial residual = 0.000144826, Final residual = 9.9501e-06, No Iterations 18
DICPCG:  Solving for p, Initial residual = 0.000248034, Final residual = 6.97114e-07, No Iterations 50
time step continuity errors : sum local = 3.15155e-09, global = -2.12978e-19, cumulative = -4.08595e-18
DICPCG:  Solving for p, Initial residual = 0.00023395, Final residual = 5.94456e-07, No Iterations 50
time step continuity errors : sum local = 2.68794e-09, global = 6.91254e-19, cumulative = -3.3947e-18
ExecutionTime = 0.29 s  ClockTime = 0 s

Time = 0.135

Courant Number mean: 0.449241 max: 1.85282
smoothSolver:  Solving for Ux, Initial residual = 3.88095e-05, Final residual = 8.93181e-06, No Iterations 10
smoothSolver:  Solving for Uy, Initial residual = 0.000118063, Final residual = 9.4158e-06, No Iterations 17
DICPCG:  Solving for p, Initial residual = 0.000213065, Final residual = 8.76555e-07, No Iterations 49
time step continuity errors : sum local = 3.95841e-09, global = 6.03046e-19, cumulative = -2.79165e-18
DICPCG:  Solving for p, Initial residual = 0.00020247, Final residual = 8.01172e-07, No Iterations 49
time step continuity errors : sum local = 3.61782e-09, global = 3.78042e-19, cumulative = -2.41361e-18
ExecutionTime = 0.29 s  ClockTime = 0 s

Time = 0.14

Courant Number mean: 0.449317 max: 1.85283
smoothSolver:  Solving for Ux, Initial residual = 3.22022e-05, Final residual = 9.95141e-06, No Iterations 8
smoothSolver:  Solving for Uy, Initial residual = 9.65093e-05, Final residual = 8.8898e-06, No Iterations 16
DICPCG:  Solving for p, Initial residual = 0.000218651, Final residual = 8.28765e-07, No Iterations 49
time step continuity errors : sum local = 3.74294e-09, global = 8.63266e-20, cumulative = -2.32728e-18
DICPCG:  Solving for p, Initial residual = 0.000210771, Final residual = 9.85223e-07, No Iterations 48
time step continuity errors : sum local = 4.45534e-09, global = -7.72121e-19, cumulative = -3.0994e-18
ExecutionTime = 0.3 s  ClockTime = 0 s

Time = 0.145

Courant Number mean: 0.449376 max: 1.85285
smoothSolver:  Solving for Ux, Initial residual = 2.74785e-05, Final residual = 9.79986e-06, No Iterations 7
smoothSolver:  Solving for Uy, Initial residual = 7.9189e-05, Final residual = 9.70398e-06, No Iterations 14
DICPCG:  Solving for p, Initial residual = 0.0001803, Final residual = 7.64782e-07, No Iterations 47
time step continuity errors : sum local = 3.46266e-09, global = -4.35738e-19, cumulative = -3.53514e-18
DICPCG:  Solving for p, Initial residual = 0.000174411, Final residual = 6.79924e-07, No Iterations 47
time step continuity errors : sum local = 3.07958e-09, global = -7.81448e-19, cumulative = -4.31659e-18
ExecutionTime = 0.31 s  ClockTime = 0 s

Time = 0.15

Courant Number mean: 0.449423 max: 1.85286
smoothSolver:  Solving for Ux, Initial residual = 2.3123e-05, Final residual = 9.57145e-06, No Iterations 6
smoothSolver:  Solving for Uy, Initial residual = 6.61066e-05, Final residual = 9.39171e-06, No Iterations 13
DICPCG:  Solving for p, Initial residual = 0.000172468, Final residual = 9.21385e-07, No Iterations 46
time step continuity errors : sum local = 4.16807e-09, global = -7.76929e-20, cumulative = -4.39428e-18
DICPCG:  Solving for p, Initial residual = 0.000167723, Final residual = 8.26314e-07, No Iterations 46
time step continuity errors : sum local = 3.73837e-09, global = -4.07097e-19, cumulative = -4.80138e-18
ExecutionTime = 0.32 s  ClockTime = 0 s

Time = 0.155

Courant Number mean: 0.44946 max: 1.85287
smoothSolver:  Solving for Ux, Initial residual = 1.99776e-05, Final residual = 9.54172e-06, No Iterations 5
smoothSolver:  Solving for Uy, Initial residual = 5.54288e-05, Final residual = 9.0518e-06, No Iterations 12
DICPCG:  Solving for p, Initial residual = 0.000163383, Final residual = 7.59577e-07, No Iterations 46
time step continuity errors : sum local = 3.43691e-09, global = 5.46156e-19, cumulative = -4.25522e-18
DICPCG:  Solving for p, Initial residual = 0.000159733, Final residual = 7.07151e-07, No Iterations 46
time step continuity errors : sum local = 3.19979e-09, global = -2.72659e-20, cumulative = -4.28249e-18
ExecutionTime = 0.32 s  ClockTime = 0 s

Time = 0.16

Courant Number mean: 0.449489 max: 1.85287
smoothSolver:  Solving for Ux, Initial residual = 1.74354e-05, Final residual = 9.60317e-06, No Iterations 4
smoothSolver:  Solving for Uy, Initial residual = 4.69434e-05, Final residual = 8.82468e-06, No Iterations 11
DICPCG:  Solving for p, Initial residual = 0.000159972, Final residual = 6.8342e-07, No Iterations 46
time step continuity errors : sum local = 3.09193e-09, global = -1.61303e-18, cumulative = -5.89552e-18
DICPCG:  Solving for p, Initial residual = 0.000157211, Final residual = 9.67374e-07, No Iterations 45
time step continuity errors : sum local = 4.37235e-09, global = -2.81614e-19, cumulative = -6.17714e-18
ExecutionTime = 0.33 s  ClockTime = 0 s

Time = 0.165

Courant Number mean: 0.449513 max: 1.85288
smoothSolver:  Solving for Ux, Initial residual = 1.55585e-05, Final residual = 9.81587e-06, No Iterations 3
smoothSolver:  Solving for Uy, Initial residual = 4.01702e-05, Final residual = 8.66032e-06, No Iterations 10
DICPCG:  Solving for p, Initial residual = 0.000160871, Final residual = 8.79138e-07, No Iterations 45
time step continuity errors : sum local = 3.97486e-09, global = -5.81415e-19, cumulative = -6.75855e-18
DICPCG:  Solving for p, Initial residual = 0.000159001, Final residual = 8.06692e-07, No Iterations 45
time step continuity errors : sum local = 3.64725e-09, global = 4.65527e-19, cumulative = -6.29302e-18
ExecutionTime = 0.34 s  ClockTime = 0 s

Time = 0.17

Courant Number mean: 0.449531 max: 1.85288
smoothSolver:  Solving for Ux, Initial residual = 1.41776e-05, Final residual = 8.83335e-06, No Iterations 3
smoothSolver:  Solving for Uy, Initial residual = 3.47811e-05, Final residual = 9.94636e-06, No Iterations 8
DICPCG:  Solving for p, Initial residual = 0.000108925, Final residual = 6.57899e-07, No Iterations 45
time step continuity errors : sum local = 2.97425e-09, global = 1.27686e-18, cumulative = -5.01617e-18
DICPCG:  Solving for p, Initial residual = 0.000107867, Final residual = 9.79125e-07, No Iterations 44
time step continuity errors : sum local = 4.42365e-09, global = 5.55338e-19, cumulative = -4.46083e-18
ExecutionTime = 0.34 s  ClockTime = 0 s

Time = 0.175

Courant Number mean: 0.449546 max: 1.85288
smoothSolver:  Solving for Ux, Initial residual = 1.22091e-05, Final residual = 8.89141e-06, No Iterations 2
smoothSolver:  Solving for Uy, Initial residual = 3.09457e-05, Final residual = 8.99969e-06, No Iterations 8
DICPCG:  Solving for p, Initial residual = 0.000138096, Final residual = 8.59929e-07, No Iterations 44
time step continuity errors : sum local = 3.88349e-09, global = -4.21262e-19, cumulative = -4.88209e-18
DICPCG:  Solving for p, Initial residual = 0.000136839, Final residual = 8.63326e-07, No Iterations 44
time step continuity errors : sum local = 3.8976e-09, global = -1.04123e-18, cumulative = -5.92333e-18
ExecutionTime = 0.35 s  ClockTime = 0 s

Time = 0.18

Courant Number mean: 0.449559 max: 1.85289
smoothSolver:  Solving for Ux, Initial residual = 1.16566e-05, Final residual = 9.59664e-06, No Iterations 1
smoothSolver:  Solving for Uy, Initial residual = 2.71965e-05, Final residual = 8.90396e-06, No Iterations 7
DICPCG:  Solving for p, Initial residual = 0.000143783, Final residual = 9.14046e-07, No Iterations 44
time step continuity errors : sum local = 4.12422e-09, global = 8.78125e-19, cumulative = -5.0452e-18
DICPCG:  Solving for p, Initial residual = 0.000144309, Final residual = 9.15462e-07, No Iterations 44
time step continuity errors : sum local = 4.13051e-09, global = 4.26132e-19, cumulative = -4.61907e-18
ExecutionTime = 0.35 s  ClockTime = 0 s

Time = 0.185

Courant Number mean: 0.449568 max: 1.85289
smoothSolver:  Solving for Ux, Initial residual = 1.12345e-05, Final residual = 9.14828e-06, No Iterations 1
smoothSolver:  Solving for Uy, Initial residual = 2.43416e-05, Final residual = 9.06603e-06, No Iterations 6
DICPCG:  Solving for p, Initial residual = 0.00011459, Final residual = 8.33693e-07, No Iterations 44
time step continuity errors : sum local = 3.76772e-09, global = -9.15244e-19, cumulative = -5.53431e-18
DICPCG:  Solving for p, Initial residual = 0.000114592, Final residual = 8.02672e-07, No Iterations 44
time step continuity errors : sum local = 3.62736e-09, global = -8.36207e-19, cumulative = -6.37052e-18
ExecutionTime = 0.36 s  ClockTime = 0 s

Time = 0.19

Courant Number mean: 0.449575 max: 1.85289
smoothSolver:  Solving for Ux, Initial residual = 1.02925e-05, Final residual = 8.41846e-06, No Iterations 1
smoothSolver:  Solving for Uy, Initial residual = 2.23414e-05, Final residual = 9.71415e-06, No Iterations 5
DICPCG:  Solving for p, Initial residual = 9.17819e-05, Final residual = 9.90028e-07, No Iterations 43
time step continuity errors : sum local = 4.46802e-09, global = -6.2174e-19, cumulative = -6.99226e-18
DICPCG:  Solving for p, Initial residual = 9.17619e-05, Final residual = 9.8751e-07, No Iterations 43
time step continuity errors : sum local = 4.45655e-09, global = 3.8192e-19, cumulative = -6.61034e-18
ExecutionTime = 0.36 s  ClockTime = 0 s

Time = 0.195

Courant Number mean: 0.449582 max: 1.85289
smoothSolver:  Solving for Ux, Initial residual = 9.38969e-06, Final residual = 9.38969e-06, No Iterations 0
smoothSolver:  Solving for Uy, Initial residual = 2.06807e-05, Final residual = 9.07819e-06, No Iterations 5
DICPCG:  Solving for p, Initial residual = 0.00012551, Final residual = 9.41626e-07, No Iterations 44
time step continuity errors : sum local = 4.2486e-09, global = -8.90822e-19, cumulative = -7.50116e-18
DICPCG:  Solving for p, Initial residual = 0.000125824, Final residual = 8.92091e-07, No Iterations 44
time step continuity errors : sum local = 4.02657e-09, global = 3.46506e-19, cumulative = -7.15466e-18
ExecutionTime = 0.37 s  ClockTime = 0 s

Time = 0.2

Courant Number mean: 0.449587 max: 1.85289
smoothSolver:  Solving for Ux, Initial residual = 9.6749e-06, Final residual = 9.6749e-06, No Iterations 0
smoothSolver:  Solving for Uy, Initial residual = 1.89093e-05, Final residual = 9.23231e-06, No Iterations 4
DICPCG:  Solving for p, Initial residual = 0.000101638, Final residual = 9.21558e-07, No Iterations 38
time step continuity errors : sum local = 4.16968e-09, global = 1.37395e-19, cumulative = -7.01726e-18
DICPCG:  Solving for p, Initial residual = 0.000102218, Final residual = 7.32551e-07, No Iterations 44
time step continuity errors : sum local = 3.3026e-09, global = 3.0068e-19, cumulative = -6.71658e-18
ExecutionTime = 0.37 s  ClockTime = 0 s

Time = 0.205

Courant Number mean: 0.449591 max: 1.8529
smoothSolver:  Solving for Ux, Initial residual = 9.30269e-06, Final residual = 9.30269e-06, No Iterations 0
smoothSolver:  Solving for Uy, Initial residual = 1.78052e-05, Final residual = 8.71977e-06, No Iterations 4
DICPCG:  Solving for p, Initial residual = 9.77521e-05, Final residual = 7.2201e-07, No Iterations 44
time step continuity errors : sum local = 3.25602e-09, global = 4.55756e-19, cumulative = -6.26083e-18
DICPCG:  Solving for p, Initial residual = 9.823e-05, Final residual = 6.9988e-07, No Iterations 44
time step continuity errors : sum local = 3.15774e-09, global = -2.99543e-19, cumulative = -6.56037e-18
ExecutionTime = 0.38 s  ClockTime = 0 s

Time = 0.21

Courant Number mean: 0.449595 max: 1.8529
smoothSolver:  Solving for Ux, Initial residual = 9.01828e-06, Final residual = 9.01828e-06, No Iterations 0
smoothSolver:  Solving for Uy, Initial residual = 1.679e-05, Final residual = 9.59749e-06, No Iterations 3
DICPCG:  Solving for p, Initial residual = 7.6474e-05, Final residual = 7.87513e-07, No Iterations 37
time step continuity errors : sum local = 3.55611e-09, global = -1.69644e-19, cumulative = -6.73001e-18
DICPCG:  Solving for p, Initial residual = 7.70214e-05, Final residual = 7.95382e-07, No Iterations 37
time step continuity errors : sum local = 3.59102e-09, global = 4.00386e-19, cumulative = -6.32963e-18
ExecutionTime = 0.38 s  ClockTime = 0 s

Time = 0.215

Courant Number mean: 0.449598 max: 1.8529
smoothSolver:  Solving for Ux, Initial residual = 8.58237e-06, Final residual = 8.58237e-06, No Iterations 0
smoothSolver:  Solving for Uy, Initial residual = 1.61052e-05, Final residual = 9.29434e-06, No Iterations 3
DICPCG:  Solving for p, Initial residual = 7.41525e-05, Final residual = 9.43665e-07, No Iterations 38
time step continuity errors : sum local = 4.2871e-09, global = 6.43236e-20, cumulative = -6.2653e-18
DICPCG:  Solving for p, Initial residual = 7.45144e-05, Final residual = 8.27019e-07, No Iterations 43
time step continuity errors : sum local = 3.73141e-09, global = 5.54728e-20, cumulative = -6.20983e-18
ExecutionTime = 0.39 s  ClockTime = 0 s

Time = 0.22

Courant Number mean: 0.449601 max: 1.8529
smoothSolver:  Solving for Ux, Initial residual = 8.21913e-06, Final residual = 8.21913e-06, No Iterations 0
smoothSolver:  Solving for Uy, Initial residual = 1.53108e-05, Final residual = 8.82532e-06, No Iterations 3
DICPCG:  Solving for p, Initial residual = 7.14451e-05, Final residual = 8.72509e-07, No Iterations 43
time step continuity errors : sum local = 3.93323e-09, global = 7.72494e-19, cumulative = -5.43734e-18
DICPCG:  Solving for p, Initial residual = 7.17237e-05, Final residual = 8.40715e-07, No Iterations 43
time step continuity errors : sum local = 3.79149e-09, global = -2.72628e-19, cumulative = -5.70996e-18
ExecutionTime = 0.39 s  ClockTime = 0 s

Time = 0.225

Courant Number mean: 0.449604 max: 1.8529
smoothSolver:  Solving for Ux, Initial residual = 7.90289e-06, Final residual = 7.90289e-06, No Iterations 0
smoothSolver:  Solving for Uy, Initial residual = 1.45784e-05, Final residual = 9.93345e-06, No Iterations 2
DICPCG:  Solving for p, Initial residual = 4.97192e-05, Final residual = 7.12301e-07, No Iterations 36
time step continuity errors : sum local = 3.21075e-09, global = -8.13977e-19, cumulative = -6.52394e-18
DICPCG:  Solving for p, Initial residual = 5.02089e-05, Final residual = 7.34492e-07, No Iterations 36
time step continuity errors : sum local = 3.30735e-09, global = 5.57778e-19, cumulative = -5.96616e-18
ExecutionTime = 0.4 s  ClockTime = 0 s

Time = 0.23

Courant Number mean: 0.449606 max: 1.8529
smoothSolver:  Solving for Ux, Initial residual = 7.46156e-06, Final residual = 7.46156e-06, No Iterations 0
smoothSolver:  Solving for Uy, Initial residual = 1.41926e-05, Final residual = 9.78192e-06, No Iterations 2
DICPCG:  Solving for p, Initial residual = 4.87843e-05, Final residual = 8.65623e-07, No Iterations 36
time step continuity errors : sum local = 3.91839e-09, global = 3.90926e-19, cumulative = -5.57524e-18
DICPCG:  Solving for p, Initial residual = 4.89913e-05, Final residual = 9.9655e-07, No Iterations 37
time step continuity errors : sum local = 4.54425e-09, global = 1.24249e-18, cumulative = -4.33275e-18
ExecutionTime = 0.4 s  ClockTime = 0 s

Time = 0.235

Courant Number mean: 0.449608 max: 1.8529
smoothSolver:  Solving for Ux, Initial residual = 7.13354e-06, Final residual = 7.13354e-06, No Iterations 0
smoothSolver:  Solving for Uy, Initial residual = 1.36514e-05, Final residual = 9.42162e-06, No Iterations 2
DICPCG:  Solving for p, Initial residual = 4.70074e-05, Final residual = 5.60211e-07, No Iterations 43
time step continuity errors : sum local = 2.52475e-09, global = 7.36232e-19, cumulative = -3.59652e-18
DICPCG:  Solving for p, Initial residual = 4.71778e-05, Final residual = 5.4459e-07, No Iterations 43
time step continuity errors : sum local = 2.45485e-09, global = -3.02583e-19, cumulative = -3.8991e-18
ExecutionTime = 0.41 s  ClockTime = 0 s

Time = 0.24

Courant Number mean: 0.44961 max: 1.8529
smoothSolver:  Solving for Ux, Initial residual = 6.83242e-06, Final residual = 6.83242e-06, No Iterations 0
smoothSolver:  Solving for Uy, Initial residual = 1.31502e-05, Final residual = 9.09263e-06, No Iterations 2
DICPCG:  Solving for p, Initial residual = 4.53046e-05, Final residual = 6.44259e-07, No Iterations 36
time step continuity errors : sum local = 2.90535e-09, global = 2.63974e-19, cumulative = -3.63513e-18
DICPCG:  Solving for p, Initial residual = 4.54987e-05, Final residual = 6.62197e-07, No Iterations 36
time step continuity errors : sum local = 2.98412e-09, global = 6.50278e-19, cumulative = -2.98485e-18
ExecutionTime = 0.41 s  ClockTime = 0 s

Time = 0.245

Courant Number mean: 0.449612 max: 1.8529
smoothSolver:  Solving for Ux, Initial residual = 6.58875e-06, Final residual = 6.58875e-06, No Iterations 0
smoothSolver:  Solving for Uy, Initial residual = 1.26664e-05, Final residual = 8.77059e-06, No Iterations 2
DICPCG:  Solving for p, Initial residual = 4.34958e-05, Final residual = 8.62069e-07, No Iterations 36
time step continuity errors : sum local = 3.91053e-09, global = -3.24462e-19, cumulative = -3.30931e-18
DICPCG:  Solving for p, Initial residual = 4.36867e-05, Final residual = 8.4803e-07, No Iterations 42
time step continuity errors : sum local = 3.83076e-09, global = 1.09205e-18, cumulative = -2.21726e-18
ExecutionTime = 0.42 s  ClockTime = 0 s

Time = 0.25

Courant Number mean: 0.449613 max: 1.8529
smoothSolver:  Solving for Ux, Initial residual = 6.33648e-06, Final residual = 6.33648e-06, No Iterations 0
smoothSolver:  Solving for Uy, Initial residual = 1.21863e-05, Final residual = 8.43375e-06, No Iterations 2
DICPCG:  Solving for p, Initial residual = 4.22418e-05, Final residual = 5.19652e-07, No Iterations 43
time step continuity errors : sum local = 2.34095e-09, global = 4.1661e-19, cumulative = -1.80065e-18
DICPCG:  Solving for p, Initial residual = 4.23927e-05, Final residual = 9.64783e-07, No Iterations 42
time step continuity errors : sum local = 4.35203e-09, global = 4.22596e-19, cumulative = -1.37805e-18
ExecutionTime = 0.42 s  ClockTime = 0 s

Time = 0.255

Courant Number mean: 0.449615 max: 1.8529
smoothSolver:  Solving for Ux, Initial residual = 6.10111e-06, Final residual = 6.10111e-06, No Iterations 0
smoothSolver:  Solving for Uy, Initial residual = 1.17314e-05, Final residual = 9.63594e-06, No Iterations 1
DICPCG:  Solving for p, Initial residual = 2.22166e-05, Final residual = 6.28712e-07, No Iterations 35
time step continuity errors : sum local = 2.83872e-09, global = 6.68393e-19, cumulative = -7.09658e-19
DICPCG:  Solving for p, Initial residual = 2.25831e-05, Final residual = 6.24901e-07, No Iterations 35
time step continuity errors : sum local = 2.83458e-09, global = 9.06817e-19, cumulative = 1.9716e-19
ExecutionTime = 0.42 s  ClockTime = 0 s

Time = 0.26

Courant Number mean: 0.449616 max: 1.8529
smoothSolver:  Solving for Ux, Initial residual = 5.75099e-06, Final residual = 5.75099e-06, No Iterations 0
smoothSolver:  Solving for Uy, Initial residual = 1.15634e-05, Final residual = 9.59486e-06, No Iterations 1
DICPCG:  Solving for p, Initial residual = 2.20331e-05, Final residual = 9.0545e-07, No Iterations 35
time step continuity errors : sum local = 4.16874e-09, global = -8.85704e-20, cumulative = 1.08589e-19
DICPCG:  Solving for p, Initial residual = 2.22169e-05, Final residual = 9.27432e-07, No Iterations 35
time step continuity errors : sum local = 4.29895e-09, global = 2.32117e-19, cumulative = 3.40707e-19
ExecutionTime = 0.43 s  ClockTime = 0 s

Time = 0.265

Courant Number mean: 0.449617 max: 1.8529
smoothSolver:  Solving for Ux, Initial residual = 5.5201e-06, Final residual = 5.5201e-06, No Iterations 0
smoothSolver:  Solving for Uy, Initial residual = 1.12018e-05, Final residual = 9.31804e-06, No Iterations 1
DICPCG:  Solving for p, Initial residual = 2.12888e-05, Final residual = 6.75982e-07, No Iterations 35
time step continuity errors : sum local = 3.04907e-09, global = -3.12716e-19, cumulative = 2.7991e-20
DICPCG:  Solving for p, Initial residual = 2.13739e-05, Final residual = 7.18943e-07, No Iterations 35
time step continuity errors : sum local = 3.30119e-09, global = -4.19608e-19, cumulative = -3.91617e-19
ExecutionTime = 0.43 s  ClockTime = 0 s

Time = 0.27

Courant Number mean: 0.449619 max: 1.8529
smoothSolver:  Solving for Ux, Initial residual = 5.29146e-06, Final residual = 5.29146e-06, No Iterations 0
smoothSolver:  Solving for Uy, Initial residual = 1.09345e-05, Final residual = 9.12179e-06, No Iterations 1
DICPCG:  Solving for p, Initial residual = 2.03405e-05, Final residual = 6.04855e-07, No Iterations 35
time step continuity errors : sum local = 2.73754e-09, global = 9.7447e-19, cumulative = 5.82853e-19
DICPCG:  Solving for p, Initial residual = 2.05187e-05, Final residual = 6.84795e-07, No Iterations 35
time step continuity errors : sum local = 3.1275e-09, global = 6.17118e-19, cumulative = 1.19997e-18
ExecutionTime = 0.44 s  ClockTime = 0 s

Time = 0.275

Courant Number mean: 0.44962 max: 1.8529
smoothSolver:  Solving for Ux, Initial residual = 5.1069e-06, Final residual = 5.1069e-06, No Iterations 0
smoothSolver:  Solving for Uy, Initial residual = 1.06673e-05, Final residual = 8.90823e-06, No Iterations 1
DICPCG:  Solving for p, Initial residual = 1.9824e-05, Final residual = 9.00321e-07, No Iterations 35
time step continuity errors : sum local = 4.17197e-09, global = -5.13162e-20, cumulative = 1.14866e-18
DICPCG:  Solving for p, Initial residual = 2.00115e-05, Final residual = 7.70695e-07, No Iterations 35
time step continuity errors : sum local = 3.56872e-09, global = 1.409e-19, cumulative = 1.28956e-18
ExecutionTime = 0.44 s  ClockTime = 0 s

Time = 0.28

Courant Number mean: 0.449621 max: 1.8529
smoothSolver:  Solving for Ux, Initial residual = 4.95341e-06, Final residual = 4.95341e-06, No Iterations 0
smoothSolver:  Solving for Uy, Initial residual = 1.03371e-05, Final residual = 8.63239e-06, No Iterations 1
DICPCG:  Solving for p, Initial residual = 1.93321e-05, Final residual = 5.85604e-07, No Iterations 35
time step continuity errors : sum local = 2.64119e-09, global = 3.22435e-19, cumulative = 1.61199e-18
DICPCG:  Solving for p, Initial residual = 1.94447e-05, Final residual = 6.78821e-07, No Iterations 35
time step continuity errors : sum local = 3.12337e-09, global = -4.61556e-19, cumulative = 1.15043e-18
ExecutionTime = 0.45 s  ClockTime = 0 s

Time = 0.285

Courant Number mean: 0.449622 max: 1.8529
smoothSolver:  Solving for Ux, Initial residual = 4.77981e-06, Final residual = 4.77981e-06, No Iterations 0
smoothSolver:  Solving for Uy, Initial residual = 1.01124e-05, Final residual = 8.457e-06, No Iterations 1
DICPCG:  Solving for p, Initial residual = 1.86654e-05, Final residual = 6.23041e-07, No Iterations 35
time step continuity errors : sum local = 2.83812e-09, global = -4.13135e-19, cumulative = 7.37298e-19
DICPCG:  Solving for p, Initial residual = 1.88176e-05, Final residual = 7.10208e-07, No Iterations 35
time step continuity errors : sum local = 3.27073e-09, global = -9.02868e-20, cumulative = 6.47012e-19
ExecutionTime = 0.45 s  ClockTime = 0 s

Time = 0.29

Courant Number mean: 0.449623 max: 1.8529
smoothSolver:  Solving for Ux, Initial residual = 4.63618e-06, Final residual = 4.63618e-06, No Iterations 0
smoothSolver:  Solving for Uy, Initial residual = 9.85226e-06, Final residual = 9.85226e-06, No Iterations 0
DICPCG:  Solving for p, Initial residual = 1.24741e-06, Final residual = 7.118e-07, No Iterations 8
time step continuity errors : sum local = 3.28882e-09, global = -4.29958e-19, cumulative = 2.17053e-19
DICPCG:  Solving for p, Initial residual = 1.09373e-06, Final residual = 9.57117e-07, No Iterations 1
time step continuity errors : sum local = 4.37694e-09, global = 1.14814e-18, cumulative = 1.36519e-18
ExecutionTime = 0.45 s  ClockTime = 0 s

Time = 0.295

Courant Number mean: 0.449623 max: 1.8529
smoothSolver:  Solving for Ux, Initial residual = 4.34714e-06, Final residual = 4.34714e-06, No Iterations 0
smoothSolver:  Solving for Uy, Initial residual = 9.8858e-06, Final residual = 9.8858e-06, No Iterations 0
DICPCG:  Solving for p, Initial residual = 1.23831e-06, Final residual = 7.32057e-07, No Iterations 3
time step continuity errors : sum local = 3.37047e-09, global = -5.22261e-20, cumulative = 1.31296e-18
DICPCG:  Solving for p, Initial residual = 1.11753e-06, Final residual = 6.38824e-07, No Iterations 2
time step continuity errors : sum local = 2.97939e-09, global = -8.54715e-19, cumulative = 4.58249e-19
ExecutionTime = 0.46 s  ClockTime = 0 s

Time = 0.3

Courant Number mean: 0.449624 max: 1.8529
smoothSolver:  Solving for Ux, Initial residual = 4.20678e-06, Final residual = 4.20678e-06, No Iterations 0
smoothSolver:  Solving for Uy, Initial residual = 9.65116e-06, Final residual = 9.65116e-06, No Iterations 0
DICPCG:  Solving for p, Initial residual = 1.18135e-06, Final residual = 9.1017e-07, No Iterations 2
time step continuity errors : sum local = 4.22826e-09, global = 6.22474e-19, cumulative = 1.08072e-18
DICPCG:  Solving for p, Initial residual = 1.5255e-06, Final residual = 8.59322e-07, No Iterations 5
time step continuity errors : sum local = 4.14866e-09, global = 6.62799e-19, cumulative = 1.74352e-18
ExecutionTime = 0.46 s  ClockTime = 0 s

Time = 0.305

Courant Number mean: 0.449624 max: 1.8529
smoothSolver:  Solving for Ux, Initial residual = 3.94492e-06, Final residual = 3.94492e-06, No Iterations 0
smoothSolver:  Solving for Uy, Initial residual = 1.00071e-05, Final residual = 8.50941e-06, No Iterations 1
DICPCG:  Solving for p, Initial residual = 1.82717e-05, Final residual = 5.145e-07, No Iterations 35
time step continuity errors : sum local = 2.34087e-09, global = 1.37104e-18, cumulative = 3.11456e-18
DICPCG:  Solving for p, Initial residual = 1.79923e-05, Final residual = 5.73312e-07, No Iterations 35
time step continuity errors : sum local = 2.62006e-09, global = -4.74802e-20, cumulative = 3.06708e-18
ExecutionTime = 0.46 s  ClockTime = 0 s

Time = 0.31

Courant Number mean: 0.449625 max: 1.8529
smoothSolver:  Solving for Ux, Initial residual = 4.05855e-06, Final residual = 4.05855e-06, No Iterations 0
smoothSolver:  Solving for Uy, Initial residual = 9.33708e-06, Final residual = 9.33708e-06, No Iterations 0
DICPCG:  Solving for p, Initial residual = 1.07313e-06, Final residual = 5.64005e-07, No Iterations 8
time step continuity errors : sum local = 2.59219e-09, global = 2.6782e-19, cumulative = 3.3349e-18
DICPCG:  Solving for p, Initial residual = 8.46805e-07, Final residual = 8.46805e-07, No Iterations 0
time step continuity errors : sum local = 3.87399e-09, global = -8.65572e-19, cumulative = 2.46933e-18
ExecutionTime = 0.46 s  ClockTime = 0 s

Time = 0.315

Courant Number mean: 0.449626 max: 1.8529
smoothSolver:  Solving for Ux, Initial residual = 3.85094e-06, Final residual = 3.85094e-06, No Iterations 0
smoothSolver:  Solving for Uy, Initial residual = 9.34051e-06, Final residual = 9.34051e-06, No Iterations 0
DICPCG:  Solving for p, Initial residual = 1.23955e-06, Final residual = 7.94438e-07, No Iterations 2
time step continuity errors : sum local = 3.63532e-09, global = 4.90094e-19, cumulative = 2.95943e-18
DICPCG:  Solving for p, Initial residual = 1.37061e-06, Final residual = 9.643e-07, No Iterations 1
time step continuity errors : sum local = 4.40342e-09, global = 1.51198e-19, cumulative = 3.11062e-18
ExecutionTime = 0.46 s  ClockTime = 0 s

Time = 0.32

Courant Number mean: 0.449626 max: 1.8529
smoothSolver:  Solving for Ux, Initial residual = 3.73835e-06, Final residual = 3.73835e-06, No Iterations 0
smoothSolver:  Solving for Uy, Initial residual = 9.15417e-06, Final residual = 9.15417e-06, No Iterations 0
DICPCG:  Solving for p, Initial residual = 1.21986e-06, Final residual = 8.47103e-07, No Iterations 1
time step continuity errors : sum local = 3.87959e-09, global = -1.11201e-18, cumulative = 1.99861e-18
DICPCG:  Solving for p, Initial residual = 1.10868e-06, Final residual = 8.39192e-07, No Iterations 6
time step continuity errors : sum local = 3.97588e-09, global = 5.30967e-19, cumulative = 2.52958e-18
ExecutionTime = 0.47 s  ClockTime = 1 s

Time = 0.325

Courant Number mean: 0.449627 max: 1.8529
smoothSolver:  Solving for Ux, Initial residual = 3.53073e-06, Final residual = 3.53073e-06, No Iterations 0
smoothSolver:  Solving for Uy, Initial residual = 9.42464e-06, Final residual = 9.42464e-06, No Iterations 0
DICPCG:  Solving for p, Initial residual = 1.28012e-06, Final residual = 8.41173e-07, No Iterations 3
time step continuity errors : sum local = 3.98294e-09, global = 4.991e-20, cumulative = 2.57949e-18
DICPCG:  Solving for p, Initial residual = 1.47052e-06, Final residual = 7.31665e-07, No Iterations 2
time step continuity errors : sum local = 3.51226e-09, global = -7.94817e-19, cumulative = 1.78467e-18
ExecutionTime = 0.47 s  ClockTime = 1 s

Time = 0.33

Courant Number mean: 0.449627 max: 1.8529
smoothSolver:  Solving for Ux, Initial residual = 3.52357e-06, Final residual = 3.52357e-06, No Iterations 0
smoothSolver:  Solving for Uy, Initial residual = 9.1532e-06, Final residual = 9.1532e-06, No Iterations 0
DICPCG:  Solving for p, Initial residual = 1.32842e-06, Final residual = 8.88368e-07, No Iterations 2
time step continuity errors : sum local = 4.20916e-09, global = -2.74944e-19, cumulative = 1.50973e-18
DICPCG:  Solving for p, Initial residual = 1.54864e-06, Final residual = 9.39915e-07, No Iterations 1
time step continuity errors : sum local = 4.4492e-09, global = 5.29985e-19, cumulative = 2.03971e-18
ExecutionTime = 0.47 s  ClockTime = 1 s

Time = 0.335

Courant Number mean: 0.449628 max: 1.8529
smoothSolver:  Solving for Ux, Initial residual = 3.47174e-06, Final residual = 3.47174e-06, No Iterations 0
smoothSolver:  Solving for Uy, Initial residual = 8.93565e-06, Final residual = 8.93565e-06, No Iterations 0
DICPCG:  Solving for p, Initial residual = 1.27795e-06, Final residual = 8.5336e-07, No Iterations 1
time step continuity errors : sum local = 4.04624e-09, global = -3.4114e-19, cumulative = 1.69858e-18
DICPCG:  Solving for p, Initial residual = 1.10505e-06, Final residual = 7.19798e-07, No Iterations 7
time step continuity errors : sum local = 3.41426e-09, global = 6.00419e-19, cumulative = 2.29899e-18
ExecutionTime = 0.47 s  ClockTime = 1 s

Time = 0.34

Courant Number mean: 0.449628 max: 1.8529
smoothSolver:  Solving for Ux, Initial residual = 3.42286e-06, Final residual = 3.42286e-06, No Iterations 0
smoothSolver:  Solving for Uy, Initial residual = 8.91931e-06, Final residual = 8.91931e-06, No Iterations 0
DICPCG:  Solving for p, Initial residual = 1.30433e-06, Final residual = 7.20331e-07, No Iterations 6
time step continuity errors : sum local = 3.34476e-09, global = 3.39806e-19, cumulative = 2.6388e-18
DICPCG:  Solving for p, Initial residual = 1.27575e-06, Final residual = 9.60915e-07, No Iterations 5
time step continuity errors : sum local = 4.50877e-09, global = 2.08574e-19, cumulative = 2.84737e-18
ExecutionTime = 0.48 s  ClockTime = 1 s

Time = 0.345

Courant Number mean: 0.449628 max: 1.8529
smoothSolver:  Solving for Ux, Initial residual = 3.32513e-06, Final residual = 3.32513e-06, No Iterations 0
smoothSolver:  Solving for Uy, Initial residual = 8.84742e-06, Final residual = 8.84742e-06, No Iterations 0
DICPCG:  Solving for p, Initial residual = 1.46533e-06, Final residual = 8.64492e-07, No Iterations 4
time step continuity errors : sum local = 4.0834e-09, global = -9.79423e-19, cumulative = 1.86795e-18
DICPCG:  Solving for p, Initial residual = 1.29866e-06, Final residual = 8.40092e-07, No Iterations 2
time step continuity errors : sum local = 3.98244e-09, global = -3.34781e-19, cumulative = 1.53317e-18
ExecutionTime = 0.48 s  ClockTime = 1 s

Time = 0.35

Courant Number mean: 0.449629 max: 1.8529
smoothSolver:  Solving for Ux, Initial residual = 3.29502e-06, Final residual = 3.29502e-06, No Iterations 0
smoothSolver:  Solving for Uy, Initial residual = 8.68418e-06, Final residual = 8.68418e-06, No Iterations 0
DICPCG:  Solving for p, Initial residual = 1.53257e-06, Final residual = 8.41515e-07, No Iterations 1
time step continuity errors : sum local = 3.9631e-09, global = -6.92971e-19, cumulative = 8.402e-19
DICPCG:  Solving for p, Initial residual = 1.27951e-06, Final residual = 6.83897e-07, No Iterations 1
time step continuity errors : sum local = 3.27309e-09, global = 1.45791e-19, cumulative = 9.8599e-19
ExecutionTime = 0.48 s  ClockTime = 1 s

Time = 0.355

Courant Number mean: 0.449629 max: 1.8529
smoothSolver:  Solving for Ux, Initial residual = 3.23821e-06, Final residual = 3.23821e-06, No Iterations 0
smoothSolver:  Solving for Uy, Initial residual = 8.55505e-06, Final residual = 8.55505e-06, No Iterations 0
DICPCG:  Solving for p, Initial residual = 8.95073e-07, Final residual = 8.95073e-07, No Iterations 0
time step continuity errors : sum local = 4.22525e-09, global = -2.76847e-19, cumulative = 7.09143e-19
DICPCG:  Solving for p, Initial residual = 1.12027e-06, Final residual = 9.76002e-07, No Iterations 1
time step continuity errors : sum local = 4.60201e-09, global = -7.28736e-19, cumulative = -1.95925e-20
ExecutionTime = 0.48 s  ClockTime = 1 s

Time = 0.36

Courant Number mean: 0.44963 max: 1.8529
smoothSolver:  Solving for Ux, Initial residual = 3.19329e-06, Final residual = 3.19329e-06, No Iterations 0
smoothSolver:  Solving for Uy, Initial residual = 8.43522e-06, Final residual = 8.43522e-06, No Iterations 0
DICPCG:  Solving for p, Initial residual = 1.29674e-06, Final residual = 9.87791e-07, No Iterations 1
time step continuity errors : sum local = 4.67163e-09, global = -8.97884e-19, cumulative = -9.17476e-19
DICPCG:  Solving for p, Initial residual = 1.24746e-06, Final residual = 6.64712e-07, No Iterations 3
time step continuity errors : sum local = 3.34281e-09, global = 8.02613e-19, cumulative = -1.14863e-19
ExecutionTime = 0.48 s  ClockTime = 1 s

Time = 0.365

Courant Number mean: 0.44963 max: 1.8529
smoothSolver:  Solving for Ux, Initial residual = 3.0329e-06, Final residual = 3.0329e-06, No Iterations 0
smoothSolver:  Solving for Uy, Initial residual = 8.51221e-06, Final residual = 8.51221e-06, No Iterations 0
DICPCG:  Solving for p, Initial residual = 1.23651e-06, Final residual = 7.73131e-07, No Iterations 2
time step continuity errors : sum local = 3.84415e-09, global = 3.26095e-19, cumulative = 2.11232e-19
DICPCG:  Solving for p, Initial residual = 1.43276e-06, Final residual = 7.37299e-07, No Iterations 2
time step continuity errors : sum local = 3.6391e-09, global = 3.00866e-19, cumulative = 5.12098e-19
ExecutionTime = 0.48 s  ClockTime = 1 s

Time = 0.37

Courant Number mean: 0.449631 max: 1.8529
smoothSolver:  Solving for Ux, Initial residual = 3.01383e-06, Final residual = 3.01383e-06, No Iterations 0
smoothSolver:  Solving for Uy, Initial residual = 8.49819e-06, Final residual = 8.49819e-06, No Iterations 0
DICPCG:  Solving for p, Initial residual = 1.395e-06, Final residual = 9.16726e-07, No Iterations 1
time step continuity errors : sum local = 4.48772e-09, global = -1.43981e-19, cumulative = 3.68117e-19
DICPCG:  Solving for p, Initial residual = 1.26664e-06, Final residual = 8.05179e-07, No Iterations 1
time step continuity errors : sum local = 3.94964e-09, global = 2.75441e-19, cumulative = 6.43558e-19
ExecutionTime = 0.48 s  ClockTime = 1 s

Time = 0.375

Courant Number mean: 0.449631 max: 1.8529
smoothSolver:  Solving for Ux, Initial residual = 2.98343e-06, Final residual = 2.98343e-06, No Iterations 0
smoothSolver:  Solving for Uy, Initial residual = 8.34984e-06, Final residual = 8.34984e-06, No Iterations 0
DICPCG:  Solving for p, Initial residual = 1.02804e-06, Final residual = 8.52704e-07, No Iterations 1
time step continuity errors : sum local = 4.15576e-09, global = -3.05106e-19, cumulative = 3.38453e-19
DICPCG:  Solving for p, Initial residual = 9.74967e-07, Final residual = 9.74967e-07, No Iterations 0
time step continuity errors : sum local = 4.7003e-09, global = -7.99139e-19, cumulative = -4.60687e-19
ExecutionTime = 0.49 s  ClockTime = 1 s

Time = 0.38

Courant Number mean: 0.449632 max: 1.8529
smoothSolver:  Solving for Ux, Initial residual = 2.94294e-06, Final residual = 2.94294e-06, No Iterations 0
smoothSolver:  Solving for Uy, Initial residual = 8.20602e-06, Final residual = 8.20602e-06, No Iterations 0
DICPCG:  Solving for p, Initial residual = 1.0963e-06, Final residual = 8.93691e-07, No Iterations 1
time step continuity errors : sum local = 4.32961e-09, global = 4.38985e-19, cumulative = -2.17019e-20
DICPCG:  Solving for p, Initial residual = 1.05841e-06, Final residual = 8.20115e-07, No Iterations 1
time step continuity errors : sum local = 3.99212e-09, global = -1.64402e-21, cumulative = -2.33459e-20
ExecutionTime = 0.49 s  ClockTime = 1 s

Time = 0.385

Courant Number mean: 0.449632 max: 1.8529
smoothSolver:  Solving for Ux, Initial residual = 2.89706e-06, Final residual = 2.89706e-06, No Iterations 0
smoothSolver:  Solving for Uy, Initial residual = 8.03829e-06, Final residual = 8.03829e-06, No Iterations 0
DICPCG:  Solving for p, Initial residual = 9.02325e-07, Final residual = 9.02325e-07, No Iterations 0
time step continuity errors : sum local = 4.35829e-09, global = -2.9612e-19, cumulative = -3.19466e-19
DICPCG:  Solving for p, Initial residual = 1.00366e-06, Final residual = 8.17288e-07, No Iterations 1
time step continuity errors : sum local = 3.97014e-09, global = 3.11231e-21, cumulative = -3.16354e-19
ExecutionTime = 0.49 s  ClockTime = 1 s

Time = 0.39

Courant Number mean: 0.449632 max: 1.8529
smoothSolver:  Solving for Ux, Initial residual = 2.85744e-06, Final residual = 2.85744e-06, No Iterations 0
smoothSolver:  Solving for Uy, Initial residual = 7.90193e-06, Final residual = 7.90193e-06, No Iterations 0
DICPCG:  Solving for p, Initial residual = 9.7958e-07, Final residual = 9.7958e-07, No Iterations 0
time step continuity errors : sum local = 4.70189e-09, global = 8.69429e-19, cumulative = 5.53075e-19
DICPCG:  Solving for p, Initial residual = 1.1103e-06, Final residual = 7.89541e-07, No Iterations 1
time step continuity errors : sum local = 3.84241e-09, global = 2.21023e-19, cumulative = 7.74098e-19
ExecutionTime = 0.49 s  ClockTime = 1 s

Time = 0.395

Courant Number mean: 0.449633 max: 1.8529
smoothSolver:  Solving for Ux, Initial residual = 2.81492e-06, Final residual = 2.81492e-06, No Iterations 0
smoothSolver:  Solving for Uy, Initial residual = 7.77828e-06, Final residual = 7.77828e-06, No Iterations 0
DICPCG:  Solving for p, Initial residual = 9.86905e-07, Final residual = 9.86905e-07, No Iterations 0
time step continuity errors : sum local = 4.73108e-09, global = 4.77593e-20, cumulative = 8.21857e-19
DICPCG:  Solving for p, Initial residual = 1.16649e-06, Final residual = 9.23744e-07, No Iterations 1
time step continuity errors : sum local = 4.44651e-09, global = -2.51453e-19, cumulative = 5.70404e-19
ExecutionTime = 0.5 s  ClockTime = 1 s

Time = 0.4

Courant Number mean: 0.449633 max: 1.8529
smoothSolver:  Solving for Ux, Initial residual = 2.77275e-06, Final residual = 2.77275e-06, No Iterations 0
smoothSolver:  Solving for Uy, Initial residual = 7.65183e-06, Final residual = 7.65183e-06, No Iterations 0
DICPCG:  Solving for p, Initial residual = 1.18028e-06, Final residual = 9.41001e-07, No Iterations 1
time step continuity errors : sum local = 4.52658e-09, global = -5.06679e-19, cumulative = 6.37253e-20
DICPCG:  Solving for p, Initial residual = 1.13308e-06, Final residual = 9.86051e-07, No Iterations 1
time step continuity errors : sum local = 4.73469e-09, global = -9.57792e-19, cumulative = -8.94067e-19
ExecutionTime = 0.5 s  ClockTime = 1 s

Time = 0.405

Courant Number mean: 0.449634 max: 1.8529
smoothSolver:  Solving for Ux, Initial residual = 2.72165e-06, Final residual = 2.72165e-06, No Iterations 0
smoothSolver:  Solving for Uy, Initial residual = 7.5289e-06, Final residual = 7.5289e-06, No Iterations 0
DICPCG:  Solving for p, Initial residual = 1.17735e-06, Final residual = 9.73611e-07, No Iterations 1
time step continuity errors : sum local = 4.68542e-09, global = -8.67619e-19, cumulative = -1.76169e-18
DICPCG:  Solving for p, Initial residual = 1.13609e-06, Final residual = 9.85269e-07, No Iterations 1
time step continuity errors : sum local = 4.74726e-09, global = -1.49641e-18, cumulative = -3.2581e-18
ExecutionTime = 0.5 s  ClockTime = 1 s

Time = 0.41

Courant Number mean: 0.449634 max: 1.8529
smoothSolver:  Solving for Ux, Initial residual = 2.67518e-06, Final residual = 2.67518e-06, No Iterations 0
smoothSolver:  Solving for Uy, Initial residual = 7.43403e-06, Final residual = 7.43403e-06, No Iterations 0
DICPCG:  Solving for p, Initial residual = 1.13922e-06, Final residual = 9.66566e-07, No Iterations 1
time step continuity errors : sum local = 4.67372e-09, global = 4.97983e-19, cumulative = -2.76011e-18
DICPCG:  Solving for p, Initial residual = 1.11099e-06, Final residual = 9.42496e-07, No Iterations 1
time step continuity errors : sum local = 4.57729e-09, global = 6.71991e-19, cumulative = -2.08812e-18
ExecutionTime = 0.5 s  ClockTime = 1 s

Time = 0.415

Courant Number mean: 0.449634 max: 1.8529
smoothSolver:  Solving for Ux, Initial residual = 2.6294e-06, Final residual = 2.6294e-06, No Iterations 0
smoothSolver:  Solving for Uy, Initial residual = 7.35945e-06, Final residual = 7.35945e-06, No Iterations 0
DICPCG:  Solving for p, Initial residual = 1.08666e-06, Final residual = 9.1964e-07, No Iterations 1
time step continuity errors : sum local = 4.48673e-09, global = -4.30341e-19, cumulative = -2.51846e-18
DICPCG:  Solving for p, Initial residual = 1.04914e-06, Final residual = 8.79927e-07, No Iterations 1
time step continuity errors : sum local = 4.32055e-09, global = -5.09585e-19, cumulative = -3.02805e-18
ExecutionTime = 0.5 s  ClockTime = 1 s

Time = 0.42

Courant Number mean: 0.449635 max: 1.8529
smoothSolver:  Solving for Ux, Initial residual = 2.58233e-06, Final residual = 2.58233e-06, No Iterations 0
smoothSolver:  Solving for Uy, Initial residual = 7.29539e-06, Final residual = 7.29539e-06, No Iterations 0
DICPCG:  Solving for p, Initial residual = 1.00053e-06, Final residual = 8.45132e-07, No Iterations 1
time step continuity errors : sum local = 4.17578e-09, global = -3.58986e-19, cumulative = -3.38703e-18
DICPCG:  Solving for p, Initial residual = 9.51383e-07, Final residual = 9.51383e-07, No Iterations 0
time step continuity errors : sum local = 4.65695e-09, global = 1.20656e-18, cumulative = -2.18048e-18
ExecutionTime = 0.5 s  ClockTime = 1 s

Time = 0.425

Courant Number mean: 0.449635 max: 1.8529
smoothSolver:  Solving for Ux, Initial residual = 2.54265e-06, Final residual = 2.54265e-06, No Iterations 0
smoothSolver:  Solving for Uy, Initial residual = 7.2131e-06, Final residual = 7.2131e-06, No Iterations 0
DICPCG:  Solving for p, Initial residual = 1.05909e-06, Final residual = 8.12317e-07, No Iterations 1
time step continuity errors : sum local = 4.04124e-09, global = 8.76481e-19, cumulative = -1.304e-18
DICPCG:  Solving for p, Initial residual = 9.88774e-07, Final residual = 9.88774e-07, No Iterations 0
time step continuity errors : sum local = 4.83871e-09, global = -1.08471e-18, cumulative = -2.38871e-18
ExecutionTime = 0.5 s  ClockTime = 1 s

Time = 0.43

Courant Number mean: 0.449636 max: 1.8529
smoothSolver:  Solving for Ux, Initial residual = 2.50093e-06, Final residual = 2.50093e-06, No Iterations 0
smoothSolver:  Solving for Uy, Initial residual = 7.13123e-06, Final residual = 7.13123e-06, No Iterations 0
DICPCG:  Solving for p, Initial residual = 1.15614e-06, Final residual = 8.7359e-07, No Iterations 1
time step continuity errors : sum local = 4.32845e-09, global = -8.35142e-20, cumulative = -2.47222e-18
DICPCG:  Solving for p, Initial residual = 1.10357e-06, Final residual = 9.11978e-07, No Iterations 1
time step continuity errors : sum local = 4.50998e-09, global = 1.89414e-19, cumulative = -2.28281e-18
ExecutionTime = 0.51 s  ClockTime = 1 s

Time = 0.435

Courant Number mean: 0.449636 max: 1.8529
smoothSolver:  Solving for Ux, Initial residual = 2.44293e-06, Final residual = 2.44293e-06, No Iterations 0
smoothSolver:  Solving for Uy, Initial residual = 7.05761e-06, Final residual = 7.05761e-06, No Iterations 0
DICPCG:  Solving for p, Initial residual = 1.08506e-06, Final residual = 9.08462e-07, No Iterations 1
time step continuity errors : sum local = 4.50121e-09, global = -1.30162e-18, cumulative = -3.58443e-18
DICPCG:  Solving for p, Initial residual = 1.08638e-06, Final residual = 8.51736e-07, No Iterations 1
time step continuity errors : sum local = 4.25221e-09, global = 1.44746e-19, cumulative = -3.43968e-18
ExecutionTime = 0.51 s  ClockTime = 1 s

Time = 0.44

Courant Number mean: 0.449636 max: 1.8529
smoothSolver:  Solving for Ux, Initial residual = 2.38848e-06, Final residual = 2.38848e-06, No Iterations 0
smoothSolver:  Solving for Uy, Initial residual = 6.98368e-06, Final residual = 6.98368e-06, No Iterations 0
DICPCG:  Solving for p, Initial residual = 1.00108e-06, Final residual = 8.24047e-07, No Iterations 1
time step continuity errors : sum local = 4.13286e-09, global = -4.48952e-20, cumulative = -3.48458e-18
DICPCG:  Solving for p, Initial residual = 9.50448e-07, Final residual = 9.50448e-07, No Iterations 0
time step continuity errors : sum local = 4.70393e-09, global = -9.90332e-19, cumulative = -4.47491e-18
ExecutionTime = 0.51 s  ClockTime = 1 s

Time = 0.445

Courant Number mean: 0.449637 max: 1.8529
smoothSolver:  Solving for Ux, Initial residual = 2.34773e-06, Final residual = 2.34773e-06, No Iterations 0
smoothSolver:  Solving for Uy, Initial residual = 6.89626e-06, Final residual = 6.89626e-06, No Iterations 0
DICPCG:  Solving for p, Initial residual = 1.06516e-06, Final residual = 7.2796e-07, No Iterations 1
time step continuity errors : sum local = 3.70539e-09, global = 2.83961e-19, cumulative = -4.19095e-18
DICPCG:  Solving for p, Initial residual = 9.13959e-07, Final residual = 9.13959e-07, No Iterations 0
time step continuity errors : sum local = 4.5446e-09, global = -1.11638e-19, cumulative = -4.30259e-18
ExecutionTime = 0.51 s  ClockTime = 1 s

Time = 0.45

Courant Number mean: 0.449637 max: 1.8529
smoothSolver:  Solving for Ux, Initial residual = 2.30985e-06, Final residual = 2.30985e-06, No Iterations 0
smoothSolver:  Solving for Uy, Initial residual = 6.81054e-06, Final residual = 6.81054e-06, No Iterations 0
DICPCG:  Solving for p, Initial residual = 1.08213e-06, Final residual = 7.17166e-07, No Iterations 1
time step continuity errors : sum local = 3.66087e-09, global = 1.71495e-19, cumulative = -4.13109e-18
DICPCG:  Solving for p, Initial residual = 9.20711e-07, Final residual = 9.20711e-07, No Iterations 0
time step continuity errors : sum local = 4.57892e-09, global = 2.04407e-19, cumulative = -3.92669e-18
ExecutionTime = 0.52 s  ClockTime = 1 s

Time = 0.455

Courant Number mean: 0.449637 max: 1.8529
smoothSolver:  Solving for Ux, Initial residual = 2.27213e-06, Final residual = 2.27213e-06, No Iterations 0
smoothSolver:  Solving for Uy, Initial residual = 6.72068e-06, Final residual = 6.72068e-06, No Iterations 0
DICPCG:  Solving for p, Initial residual = 1.10435e-06, Final residual = 7.54258e-07, No Iterations 1
time step continuity errors : sum local = 3.83154e-09, global = 9.60998e-19, cumulative = -2.96569e-18
DICPCG:  Solving for p, Initial residual = 9.86743e-07, Final residual = 9.86743e-07, No Iterations 0
time step continuity errors : sum local = 4.88011e-09, global = 7.61637e-19, cumulative = -2.20405e-18
ExecutionTime = 0.52 s  ClockTime = 1 s

Time = 0.46

Courant Number mean: 0.449638 max: 1.8529
smoothSolver:  Solving for Ux, Initial residual = 2.23404e-06, Final residual = 2.23404e-06, No Iterations 0
smoothSolver:  Solving for Uy, Initial residual = 6.63053e-06, Final residual = 6.63053e-06, No Iterations 0
DICPCG:  Solving for p, Initial residual = 1.18967e-06, Final residual = 8.01727e-07, No Iterations 1
time step continuity errors : sum local = 4.0489e-09, global = -5.58998e-19, cumulative = -2.76305e-18
DICPCG:  Solving for p, Initial residual = 1.06596e-06, Final residual = 8.15337e-07, No Iterations 1
time step continuity errors : sum local = 4.11355e-09, global = 5.04725e-19, cumulative = -2.25833e-18
ExecutionTime = 0.52 s  ClockTime = 1 s

Time = 0.465

Courant Number mean: 0.449638 max: 1.8529
smoothSolver:  Solving for Ux, Initial residual = 2.18709e-06, Final residual = 2.18709e-06, No Iterations 0
smoothSolver:  Solving for Uy, Initial residual = 6.53456e-06, Final residual = 6.53456e-06, No Iterations 0
DICPCG:  Solving for p, Initial residual = 9.80162e-07, Final residual = 9.80162e-07, No Iterations 0
time step continuity errors : sum local = 4.85696e-09, global = -1.56891e-18, cumulative = -3.82724e-18
DICPCG:  Solving for p, Initial residual = 1.10355e-06, Final residual = 8.15521e-07, No Iterations 1
time step continuity errors : sum local = 4.11837e-09, global = 1.03539e-18, cumulative = -2.79185e-18
ExecutionTime = 0.52 s  ClockTime = 1 s

Time = 0.47

Courant Number mean: 0.449638 max: 1.8529
smoothSolver:  Solving for Ux, Initial residual = 2.15227e-06, Final residual = 2.15227e-06, No Iterations 0
smoothSolver:  Solving for Uy, Initial residual = 6.44654e-06, Final residual = 6.44654e-06, No Iterations 0
DICPCG:  Solving for p, Initial residual = 1.0993e-06, Final residual = 7.76796e-07, No Iterations 1
time step continuity errors : sum local = 3.94775e-09, global = 9.77469e-19, cumulative = -1.81438e-18
DICPCG:  Solving for p, Initial residual = 9.29295e-07, Final residual = 9.29295e-07, No Iterations 0
time step continuity errors : sum local = 4.63552e-09, global = 4.42841e-19, cumulative = -1.37154e-18
ExecutionTime = 0.52 s  ClockTime = 1 s

Time = 0.475

Courant Number mean: 0.449639 max: 1.8529
smoothSolver:  Solving for Ux, Initial residual = 2.11837e-06, Final residual = 2.11837e-06, No Iterations 0
smoothSolver:  Solving for Uy, Initial residual = 6.35206e-06, Final residual = 6.35206e-06, No Iterations 0
DICPCG:  Solving for p, Initial residual = 1.06983e-06, Final residual = 7.93377e-07, No Iterations 1
time step continuity errors : sum local = 4.02709e-09, global = 1.04152e-18, cumulative = -3.30013e-19
DICPCG:  Solving for p, Initial residual = 1.03489e-06, Final residual = 7.52187e-07, No Iterations 1
time step continuity errors : sum local = 3.84587e-09, global = 9.41828e-19, cumulative = 6.11815e-19
ExecutionTime = 0.52 s  ClockTime = 1 s

Time = 0.48

Courant Number mean: 0.449639 max: 1.8529
smoothSolver:  Solving for Ux, Initial residual = 2.08032e-06, Final residual = 2.08032e-06, No Iterations 0
smoothSolver:  Solving for Uy, Initial residual = 6.25696e-06, Final residual = 6.25696e-06, No Iterations 0
DICPCG:  Solving for p, Initial residual = 8.99893e-07, Final residual = 8.99893e-07, No Iterations 0
time step continuity errors : sum local = 4.51201e-09, global = -2.35281e-19, cumulative = 3.76534e-19
DICPCG:  Solving for p, Initial residual = 1.0097e-06, Final residual = 7.4453e-07, No Iterations 1
time step continuity errors : sum local = 3.81599e-09, global = -9.58465e-19, cumulative = -5.81931e-19
ExecutionTime = 0.53 s  ClockTime = 1 s

Time = 0.485

Courant Number mean: 0.449639 max: 1.8529
smoothSolver:  Solving for Ux, Initial residual = 2.04891e-06, Final residual = 2.04891e-06, No Iterations 0
smoothSolver:  Solving for Uy, Initial residual = 6.16839e-06, Final residual = 6.16839e-06, No Iterations 0
DICPCG:  Solving for p, Initial residual = 9.99016e-07, Final residual = 9.99016e-07, No Iterations 0
time step continuity errors : sum local = 4.96445e-09, global = -1.10553e-19, cumulative = -6.92483e-19
DICPCG:  Solving for p, Initial residual = 1.16394e-06, Final residual = 7.01058e-07, No Iterations 1
time step continuity errors : sum local = 3.62454e-09, global = -1.11763e-18, cumulative = -1.81012e-18
ExecutionTime = 0.53 s  ClockTime = 1 s

Time = 0.49

Courant Number mean: 0.44964 max: 1.8529
smoothSolver:  Solving for Ux, Initial residual = 2.02031e-06, Final residual = 2.02031e-06, No Iterations 0
smoothSolver:  Solving for Uy, Initial residual = 6.08032e-06, Final residual = 6.08032e-06, No Iterations 0
DICPCG:  Solving for p, Initial residual = 9.72361e-07, Final residual = 9.72361e-07, No Iterations 0
time step continuity errors : sum local = 4.84799e-09, global = 1.61259e-19, cumulative = -1.64886e-18
DICPCG:  Solving for p, Initial residual = 1.15933e-06, Final residual = 7.36228e-07, No Iterations 1
time step continuity errors : sum local = 3.78672e-09, global = -2.96172e-19, cumulative = -1.94503e-18
ExecutionTime = 0.53 s  ClockTime = 1 s

Time = 0.495

Courant Number mean: 0.44964 max: 1.8529
smoothSolver:  Solving for Ux, Initial residual = 1.98838e-06, Final residual = 1.98838e-06, No Iterations 0
smoothSolver:  Solving for Uy, Initial residual = 5.98789e-06, Final residual = 5.98789e-06, No Iterations 0
DICPCG:  Solving for p, Initial residual = 1.0197e-06, Final residual = 7.39823e-07, No Iterations 1
time step continuity errors : sum local = 3.80601e-09, global = -1.98172e-19, cumulative = -2.1432e-18
DICPCG:  Solving for p, Initial residual = 8.93013e-07, Final residual = 8.93013e-07, No Iterations 0
time step continuity errors : sum local = 4.49696e-09, global = 4.5557e-19, cumulative = -1.68763e-18
ExecutionTime = 0.54 s  ClockTime = 1 s

Time = 0.5

Courant Number mean: 0.44964 max: 1.8529
smoothSolver:  Solving for Ux, Initial residual = 1.95791e-06, Final residual = 1.95791e-06, No Iterations 0
smoothSolver:  Solving for Uy, Initial residual = 5.89433e-06, Final residual = 5.89433e-06, No Iterations 0
DICPCG:  Solving for p, Initial residual = 1.03129e-06, Final residual = 6.96155e-07, No Iterations 1
time step continuity errors : sum local = 3.61177e-09, global = 1.29991e-19, cumulative = -1.55764e-18
DICPCG:  Solving for p, Initial residual = 9.43492e-07, Final residual = 9.43492e-07, No Iterations 0
time step continuity errors : sum local = 4.72744e-09, global = 1.89766e-19, cumulative = -1.36788e-18
ExecutionTime = 0.54 s  ClockTime = 1 s

End

