/*---------------------------------------------------------------------------*\
| =========                 |                                                 |
| \\      /  F ield         | OpenFOAM: The Open Source CFD Toolbox           |
|  \\    /   O peration     | Version:  2.4.0                                 |
|   \\  /    A nd           | Web:      www.OpenFOAM.org                      |
|    \\/     M anipulation  |                                                 |
\*---------------------------------------------------------------------------*/
Build  : 2.4.0-f0842aea0e77
Exec   : icoFoam
Date   : Sep 30 2015
Time   : 06:31:56
Host   : "ubuntu"
PID    : 9518
Case   : /home/johnathoncobabe/OpenFOAM/johnathoncobabe-2.4.0/run/tutorials/incompressible/icoFoam/cavityHighRe
nProcs : 1
sigFpe : Enabling floating point exception trapping (FOAM_SIGFPE).
fileModificationChecking : Monitoring run-time modified files using timeStampMaster
allowSystemOperations : Allowing user-supplied system call operations

// * * * * * * * * * * * * * * * * * * * * * * * * * * * * * * * * * * * * * //
Create time

Create mesh for time = 2

Reading transportProperties

Reading field p

Reading field U

Reading/calculating face flux field phi


Starting time loop

End

